data_calf-20
_audit_creation_date              2025-06-13
_audit_creation_method            'Materials Studio'
_symmetry_space_group_name_H-M    'P1'
_symmetry_Int_Tables_number       1
_symmetry_cell_setting            triclinic
loop_
_symmetry_equiv_pos_as_xyz
  x,y,z
_cell_length_a                    8.9138
_cell_length_b                    9.6935
_cell_length_c                    9.4836
_cell_angle_alpha                 90.0000
_cell_angle_beta                  115.8950
_cell_angle_gamma                 90.0000
loop_
_atom_site_label
_atom_site_type_symbol
_atom_site_fract_x
_atom_site_fract_y
_atom_site_fract_z
_atom_site_U_iso_or_equiv
_atom_site_adp_type
_atom_site_occupancy
Zn1    Zn    0.17588   0.05771   0.43679   0.01878  Uani   1.00
N2     N     0.03080   0.88920   0.36830   0.02235  Uani   1.00
N3     N     0.90780   0.85250   0.41000   0.02454  Uani   1.00
N4     N     0.90080   0.70860   0.22590   0.02563  Uani   1.00
O5     O     0.40980   0.07610   0.61020   0.03235  Uani   1.00
O6     O     0.67530   0.03070   0.67320   0.02972  Uani   1.00
C7     C     0.02150   0.80170   0.25880   0.02987  Uani   1.00
H8     H     0.09320   0.80450   0.20860   0.03600  Uiso   1.00
C9     C     0.83450   0.74460   0.32320   0.02964  Uani   1.00
H10    H     0.74410   0.69710   0.32890   0.03600  Uiso   1.00
C11    C     0.52480   0.03080   0.58150   0.02323  Uani   1.00
Zn12   Zn    0.82412   0.55771   0.06321   0.01878  Uani   1.00
N13    N     0.96920   0.38920   0.13170   0.02235  Uani   1.00
N14    N     0.09220   0.35250   0.09000   0.02454  Uani   1.00
N15    N     0.09920   0.20860   0.27410   0.02563  Uani   1.00
O16    O     0.59020   0.57610   0.88980   0.03235  Uani   1.00
O17    O     0.32470   0.53070   0.82680   0.02972  Uani   1.00
C18    C     0.97850   0.30170   0.24120   0.02987  Uani   1.00
H19    H     0.90680   0.30450   0.29140   0.03600  Uiso   1.00
C20    C     0.16550   0.24460   0.17680   0.02964  Uani   1.00
H21    H     0.25590   0.19710   0.17110   0.03600  Uiso   1.00
C22    C     0.47520   0.53080   0.91850   0.02323  Uani   1.00
Zn23   Zn    0.82412   0.94229   0.56321   0.01878  Uani   1.00
N24    N     0.96920   0.11080   0.63170   0.02235  Uani   1.00
N25    N     0.09220   0.14750   0.59000   0.02454  Uani   1.00
N26    N     0.09920   0.29140   0.77410   0.02563  Uani   1.00
O27    O     0.59020   0.92390   0.38980   0.03235  Uani   1.00
O28    O     0.32470   0.96930   0.32680   0.02972  Uani   1.00
C29    C     0.97850   0.19830   0.74120   0.02987  Uani   1.00
H30    H     0.90680   0.19550   0.79140   0.03600  Uiso   1.00
C31    C     0.16550   0.25540   0.67680   0.02964  Uani   1.00
H32    H     0.25590   0.30290   0.67110   0.03600  Uiso   1.00
C33    C     0.47520   0.96920   0.41850   0.02323  Uani   1.00
Zn34   Zn    0.17588   0.44229   0.93679   0.01878  Uani   1.00
N35    N     0.03080   0.61080   0.86830   0.02235  Uani   1.00
N36    N     0.90780   0.64750   0.91000   0.02454  Uani   1.00
N37    N     0.90080   0.79140   0.72590   0.02563  Uani   1.00
O38    O     0.40980   0.42390   0.11020   0.03235  Uani   1.00
O39    O     0.67530   0.46930   0.17320   0.02972  Uani   1.00
C40    C     0.02150   0.69830   0.75880   0.02987  Uani   1.00
H41    H     0.09320   0.69550   0.70860   0.03600  Uiso   1.00
C42    C     0.83450   0.75540   0.82320   0.02964  Uani   1.00
H43    H     0.74410   0.80290   0.82890   0.03600  Uiso   1.00
C44    C     0.52480   0.46920   0.08150   0.02323  Uani   1.00
loop_
_atom_site_aniso_label
_atom_site_aniso_U_11
_atom_site_aniso_U_22
_atom_site_aniso_U_33
_atom_site_aniso_U_12
_atom_site_aniso_U_13
_atom_site_aniso_U_23
Zn1       0.01910   0.01960   0.02120  -0.00037   0.01210   0.00021
N2        0.02510   0.02230   0.02770  -0.00420   0.01900  -0.00430
N3        0.02610   0.02640   0.02940  -0.00570   0.01980  -0.00540
N4        0.02870   0.02630   0.02900  -0.00580   0.01920  -0.00810
O5        0.01990   0.04770   0.03200   0.00370   0.01370  -0.00870
O6        0.02170   0.03940   0.02870   0.00180   0.01160  -0.00580
C7        0.03180   0.03110   0.03860  -0.01080   0.02640  -0.01070
C9        0.03200   0.03190   0.03800  -0.01230   0.02730  -0.01110
C11       0.01980   0.02350   0.02720   0.00070   0.01100   0.00160
Zn12      0.01910   0.01960   0.02120   0.00037   0.01210  -0.00021
N13       0.02510   0.02230   0.02770   0.00420   0.01900   0.00430
N14       0.02610   0.02640   0.02940   0.00570   0.01980   0.00540
N15       0.02870   0.02630   0.02900   0.00580   0.01920   0.00810
O16       0.01990   0.04770   0.03200  -0.00370   0.01370   0.00870
O17       0.02170   0.03940   0.02870  -0.00180   0.01160   0.00580
C18       0.03180   0.03110   0.03860   0.01080   0.02640   0.01070
C20       0.03200   0.03190   0.03800   0.01230   0.02730   0.01110
C22       0.01980   0.02350   0.02720  -0.00070   0.01100  -0.00160
Zn23      0.01910   0.01960   0.02120  -0.00037   0.01210   0.00021
N24       0.02510   0.02230   0.02770  -0.00420   0.01900  -0.00430
N25       0.02610   0.02640   0.02940  -0.00570   0.01980  -0.00540
N26       0.02870   0.02630   0.02900  -0.00580   0.01920  -0.00810
O27       0.01990   0.04770   0.03200   0.00370   0.01370  -0.00870
O28       0.02170   0.03940   0.02870   0.00180   0.01160  -0.00580
C29       0.03180   0.03110   0.03860  -0.01080   0.02640  -0.01070
C31       0.03200   0.03190   0.03800  -0.01230   0.02730  -0.01110
C33       0.01980   0.02350   0.02720   0.00070   0.01100   0.00160
Zn34      0.01910   0.01960   0.02120   0.00037   0.01210  -0.00021
N35       0.02510   0.02230   0.02770   0.00420   0.01900   0.00430
N36       0.02610   0.02640   0.02940   0.00570   0.01980   0.00540
N37       0.02870   0.02630   0.02900   0.00580   0.01920   0.00810
O38       0.01990   0.04770   0.03200  -0.00370   0.01370   0.00870
O39       0.02170   0.03940   0.02870  -0.00180   0.01160   0.00580
C40       0.03180   0.03110   0.03860   0.01080   0.02640   0.01070
C42       0.03200   0.03190   0.03800   0.01230   0.02730   0.01110
C44       0.01980   0.02350   0.02720  -0.00070   0.01100  -0.00160
loop_
_geom_bond_atom_site_label_1
_geom_bond_atom_site_label_2
_geom_bond_distance
_geom_bond_site_symmetry_2
_ccdc_geom_bond_type
Zn1    N2      2.007   1_545 S
Zn1    O5      2.022   .     S
Zn1    N15     2.016   .     S
Zn1    N25     2.091   .     S
Zn1    O28     2.189   1_545 S
N2     Zn1     2.007   1_565 S
N2     C7      1.315   .     S
N2     N3      1.365   1_455 S
N3     N2      1.365   1_655 S
N3     C9      1.315   .     S
N3     Zn23    2.091   .     S
N4     C7      1.333   1_655 S
N4     C9      1.341   .     S
N4     Zn12    2.016   .     S
O5     C11     1.250   .     S
O6     C11     1.240   .     S
O6     Zn23    2.189   1_545 S
C7     N4      1.333   1_455 S
C7     H8      0.950   .     S
C9     H10     0.950   .     S
C11    C33     1.531   1_545 S
Zn12   N13     2.007   .     S
Zn12   O16     2.022   1_554 S
Zn12   N36     2.091   1_554 S
Zn12   O39     2.189   .     S
N13    C18     1.315   .     S
N13    N14     1.365   1_655 S
N14    N13     1.365   1_455 S
N14    C20     1.315   .     S
N14    Zn34    2.091   1_554 S
N15    C18     1.333   1_455 S
N15    C20     1.341   .     S
O16    Zn12    2.022   1_556 S
O16    C22     1.250   .     S
O17    C22     1.240   .     S
O17    Zn34    2.189   .     S
C18    N15     1.333   1_655 S
C18    H19     0.950   .     S
C20    H21     0.950   .     S
C22    C44     1.531   1_556 S
Zn23   N24     2.007   1_565 S
Zn23   O27     2.022   .     S
Zn23   N37     2.016   .     S
Zn23   O6      2.189   1_565 S
N24    Zn23    2.007   1_545 S
N24    C29     1.315   .     S
N24    N25     1.365   1_655 S
N25    N24     1.365   1_455 S
N25    C31     1.315   .     S
N26    C29     1.333   1_455 S
N26    C31     1.341   .     S
N26    Zn34    2.016   .     S
O27    C33     1.250   .     S
O28    C33     1.240   .     S
O28    Zn1     2.189   1_565 S
C29    N26     1.333   1_655 S
C29    H30     0.950   .     S
C31    H32     0.950   .     S
C33    C11     1.531   1_565 S
Zn34   N35     2.007   .     S
Zn34   O38     2.022   1_556 S
Zn34   N14     2.091   1_556 S
N35    C40     1.315   .     S
N35    N36     1.365   1_455 S
N36    N35     1.365   1_655 S
N36    C42     1.315   .     S
N36    Zn12    2.091   1_556 S
N37    C40     1.333   1_655 S
N37    C42     1.341   .     S
O38    Zn34    2.022   1_554 S
O38    C44     1.250   .     S
O39    C44     1.240   .     S
C40    N37     1.333   1_455 S
C40    H41     0.950   .     S
C42    H43     0.950   .     S
C44    C22     1.531   1_554 S
