data_Co-aip-pyz
_audit_creation_date              2025-06-13
_audit_creation_method            'Materials Studio'
_symmetry_space_group_name_H-M    'P1'
_symmetry_Int_Tables_number       1
_symmetry_cell_setting            triclinic
loop_
_symmetry_equiv_pos_as_xyz
  x,y,z
_cell_length_a                    7.8150
_cell_length_b                    11.1520
_cell_length_c                    14.8540
_cell_angle_alpha                 73.3050
_cell_angle_beta                  76.7460
_cell_angle_gamma                 71.8860
loop_
_atom_site_label
_atom_site_type_symbol
_atom_site_fract_x
_atom_site_fract_y
_atom_site_fract_z
_atom_site_U_iso_or_equiv
_atom_site_adp_type
_atom_site_occupancy
Co1    Co    0.08850   0.08400   0.64371   0.00000  Uiso   1.00
Co2    Co    0.61360   0.62900   0.15876   0.00000  Uiso   1.00
O3     O     0.14880   0.99500   0.77340   0.00000  Uiso   1.00
O4     O     0.80530   0.15900   0.66680   0.00000  Uiso   1.00
O5     O     0.03300   0.89760   0.64590   0.00000  Uiso   1.00
O6     O     0.93670   0.18660   0.52090   0.00000  Uiso   1.00
O7     O     0.76470   0.75150   0.02290   0.00000  Uiso   1.00
O8     O     0.84070   0.67130   0.16500   0.00000  Uiso   1.00
O9     O     0.55720   0.50800   0.28070   0.00000  Uiso   1.00
O10    O     0.39660   0.02450   0.80080   0.00000  Uiso   1.00
O11    O     0.26290   0.55080   0.30640   0.00000  Uiso   1.00
N12    N     0.33140   0.03170   0.55570   0.00000  Uiso   1.00
N13    N     0.13190   0.27390   0.64420   0.00000  Uiso   1.00
H14    H     0.02640   0.30420   0.62630   0.00000  Uiso   1.00
H15    H     0.14380   0.22380   0.69970   0.00000  Uiso   1.00
N16    N     0.56000   0.54630   0.06380   0.00000  Uiso   1.00
N17    N     0.41790   0.80540   0.15410   0.00000  Uiso   1.00
H18    H     0.39780   0.76060   0.21130   0.00000  Uiso   1.00
H19    H     0.51080   0.83710   0.13630   0.00000  Uiso   1.00
C20    C     0.22300   0.90600   0.92820   0.00000  Uiso   1.00
C21    C     0.07200   0.85600   0.95710   0.00000  Uiso   1.00
H22    H     0.99710   0.86610   0.91370   0.00000  Uiso   1.00
C23    C     0.03370   0.79150   0.05010   0.00000  Uiso   1.00
C24    C     0.14800   0.77720   0.11580   0.00000  Uiso   1.00
H25    H     0.12120   0.73320   0.17860   0.00000  Uiso   1.00
C26    C     0.29700   0.82710   0.08860   0.00000  Uiso   1.00
C27    C     0.33400   0.89340   0.99210   0.00000  Uiso   1.00
H28    H     0.43380   0.92830   0.97200   0.00000  Uiso   1.00
C29    C     0.26200   0.98210   0.82580   0.00000  Uiso   1.00
C30    C     0.86600   0.73650   0.08070   0.00000  Uiso   1.00
C31    C     0.61400   0.26650   0.54890   0.00000  Uiso   1.00
C32    C     0.60000   0.34880   0.45580   0.00000  Uiso   1.00
H33    H     0.70440   0.36290   0.41390   0.00000  Uiso   1.00
C34    C     0.42900   0.40730   0.42900   0.00000  Uiso   1.00
C35    C     0.27300   0.38760   0.49120   0.00000  Uiso   1.00
H36    H     0.15830   0.42780   0.47290   0.00000  Uiso   1.00
C37    C     0.28900   0.30710   0.58080   0.00000  Uiso   1.00
C38    C     0.46120   0.25070   0.60810   0.00000  Uiso   1.00
H39    H     0.47020   0.20040   0.66970   0.00000  Uiso   1.00
C40    C     0.79600   0.20410   0.57880   0.00000  Uiso   1.00
C41    C     0.41800   0.49800   0.33170   0.00000  Uiso   1.00
C42    C     0.61900   0.56500   0.96970   0.00000  Uiso   1.00
H43    H     0.69920   0.61760   0.94390   0.00000  Uiso   1.00
C44    C     0.42800   0.48500   0.08960   0.00000  Uiso   1.00
H45    H     0.36570   0.47640   0.15160   0.00000  Uiso   1.00
C46    C     0.47900   0.94470   0.58950   0.00000  Uiso   1.00
H47    H     0.46760   0.90370   0.65380   0.00000  Uiso   1.00
C48    C     0.36000   0.08540   0.46440   0.00000  Uiso   1.00
H49    H     0.26440   0.14700   0.43650   0.00000  Uiso   1.00
O50    O     0.74900   0.83900   0.80030   0.00000  Uiso   1.00
Co51   Co    0.91150   0.91600   0.35629   0.00000  Uiso   1.00
Co52   Co    0.38640   0.37100   0.84124   0.00000  Uiso   1.00
O53    O     0.85120   0.00500   0.22660   0.00000  Uiso   1.00
O54    O     0.19470   0.84100   0.33320   0.00000  Uiso   1.00
O55    O     0.96700   0.10240   0.35410   0.00000  Uiso   1.00
O56    O     0.06330   0.81340   0.47910   0.00000  Uiso   1.00
O57    O     0.23530   0.24850   0.97710   0.00000  Uiso   1.00
O58    O     0.15930   0.32870   0.83500   0.00000  Uiso   1.00
O59    O     0.44280   0.49200   0.71930   0.00000  Uiso   1.00
O60    O     0.60340   0.97550   0.19920   0.00000  Uiso   1.00
O61    O     0.73710   0.44920   0.69360   0.00000  Uiso   1.00
N62    N     0.66860   0.96830   0.44430   0.00000  Uiso   1.00
N63    N     0.86810   0.72610   0.35580   0.00000  Uiso   1.00
H64    H     0.97360   0.69580   0.37370   0.00000  Uiso   1.00
H65    H     0.85620   0.77620   0.30030   0.00000  Uiso   1.00
N66    N     0.44000   0.45370   0.93620   0.00000  Uiso   1.00
N67    N     0.58210   0.19460   0.84590   0.00000  Uiso   1.00
H68    H     0.60220   0.23940   0.78870   0.00000  Uiso   1.00
H69    H     0.48920   0.16290   0.86370   0.00000  Uiso   1.00
C70    C     0.77700   0.09400   0.07180   0.00000  Uiso   1.00
C71    C     0.92800   0.14400   0.04290   0.00000  Uiso   1.00
H72    H     0.00290   0.13390   0.08630   0.00000  Uiso   1.00
C73    C     0.96630   0.20850   0.94990   0.00000  Uiso   1.00
C74    C     0.85200   0.22280   0.88420   0.00000  Uiso   1.00
H75    H     0.87880   0.26680   0.82140   0.00000  Uiso   1.00
C76    C     0.70300   0.17290   0.91140   0.00000  Uiso   1.00
C77    C     0.66600   0.10660   0.00790   0.00000  Uiso   1.00
H78    H     0.56620   0.07170   0.02800   0.00000  Uiso   1.00
C79    C     0.73800   0.01790   0.17420   0.00000  Uiso   1.00
C80    C     0.13400   0.26350   0.91930   0.00000  Uiso   1.00
C81    C     0.38600   0.73350   0.45110   0.00000  Uiso   1.00
C82    C     0.40000   0.65120   0.54420   0.00000  Uiso   1.00
H83    H     0.29560   0.63710   0.58610   0.00000  Uiso   1.00
C84    C     0.57100   0.59270   0.57100   0.00000  Uiso   1.00
C85    C     0.72700   0.61240   0.50880   0.00000  Uiso   1.00
H86    H     0.84170   0.57220   0.52710   0.00000  Uiso   1.00
C87    C     0.71100   0.69290   0.41920   0.00000  Uiso   1.00
C88    C     0.53880   0.74930   0.39190   0.00000  Uiso   1.00
H89    H     0.52980   0.79960   0.33030   0.00000  Uiso   1.00
C90    C     0.20400   0.79590   0.42120   0.00000  Uiso   1.00
C91    C     0.58200   0.50200   0.66830   0.00000  Uiso   1.00
C92    C     0.38100   0.43500   0.03030   0.00000  Uiso   1.00
H93    H     0.30080   0.38240   0.05610   0.00000  Uiso   1.00
C94    C     0.57200   0.51500   0.91040   0.00000  Uiso   1.00
H95    H     0.63430   0.52360   0.84840   0.00000  Uiso   1.00
C96    C     0.52100   0.05530   0.41050   0.00000  Uiso   1.00
H97    H     0.53240   0.09630   0.34620   0.00000  Uiso   1.00
C98    C     0.64000   0.91460   0.53560   0.00000  Uiso   1.00
H99    H     0.73560   0.85300   0.56350   0.00000  Uiso   1.00
O100   O     0.25100   0.16100   0.19970   0.00000  Uiso   1.00
loop_
_geom_bond_atom_site_label_1
_geom_bond_atom_site_label_2
_geom_bond_distance
_geom_bond_site_symmetry_2
_ccdc_geom_bond_type
Co1    O3      1.986   1_545 S
Co1    O4      2.093   1_455 S
Co1    O5      2.242   1_545 S
Co1    O6      2.235   1_455 S
Co1    N12     2.065   .     S
Co2    O8      2.001   .     S
Co2    O9      1.974   .     S
Co2    N16     2.067   .     S
Co2    N17     2.077   .     S
O3     Co1     1.986   1_565 S
O3     C29     1.258   .     S
O4     Co1     2.093   1_655 S
O4     C40     1.269   .     S
O5     Co1     2.242   1_565 S
O6     Co1     2.235   1_655 S
O6     C40     1.231   .     D
O7     C30     1.240   .     D
O8     C30     1.260   .     S
O9     C41     1.191   .     S
O10    C29     1.224   1_545 D
O11    C41     1.263   .     D
N12    C46     1.347   1_545 A
N12    C48     1.314   .     A
N13    H14     0.860   .     S
N13    H15     0.859   .     S
N13    C37     1.443   .     S
N16    C42     1.344   1_554 A
N16    C44     1.336   .     A
N17    H18     0.860   .     S
N17    H19     0.860   .     S
N17    C26     1.429   .     S
C20    C21     1.388   .     D
C20    C27     1.378   .     S
C20    C29     1.528   .     S
C21    H22     0.928   1_455 S
C21    C23     1.374   1_556 S
H22    C21     0.928   1_655 S
C23    C21     1.374   1_554 S
C23    C24     1.413   .     D
C23    C30     1.538   1_455 S
C24    H25     0.931   .     S
C24    C26     1.374   .     S
C26    C27     1.421   1_554 D
C27    C26     1.421   1_556 D
C27    H28     0.930   .     S
C29    O10     1.224   1_565 D
C30    C23     1.538   1_655 S
C31    C32     1.430   .     S
C31    C38     1.338   .     D
C31    C40     1.484   .     S
C32    H33     0.932   .     S
C32    C34     1.387   .     D
C34    C35     1.386   .     S
C34    C41     1.511   .     S
C35    H36     0.933   .     S
C35    C37     1.383   .     D
C37    C38     1.396   .     S
C38    H39     0.931   .     S
C42    N16     1.344   1_556 A
C42    H43     0.934   .     S
C42    C94     1.334   .     A
C44    H45     0.931   .     S
C44    C92     1.334   .     A
C46    N12     1.347   1_565 A
C46    H47     0.930   .     S
C46    C98     1.329   .     A
C48    H49     0.928   .     S
C48    C96     1.329   .     A
Co51   O53     1.986   1_565 S
Co51   O54     2.093   1_655 S
Co51   O55     2.242   1_565 S
Co51   O56     2.235   1_655 S
Co51   N62     2.065   .     S
Co52   O58     2.001   .     S
Co52   O59     1.974   .     S
Co52   N66     2.067   .     S
Co52   N67     2.077   .     S
O53    Co51    1.986   1_545 S
O53    C79     1.258   .     S
O54    Co51    2.093   1_455 S
O54    C90     1.269   .     S
O55    Co51    2.242   1_545 S
O56    Co51    2.235   1_455 S
O56    C90     1.231   .     D
O57    C80     1.240   .     D
O58    C80     1.260   .     S
O59    C91     1.191   .     S
O60    C79     1.224   1_565 D
O61    C91     1.263   .     D
N62    C96     1.347   1_565 A
N62    C98     1.314   .     A
N63    H64     0.860   .     S
N63    H65     0.859   .     S
N63    C87     1.443   .     S
N66    C92     1.344   1_556 A
N66    C94     1.336   .     A
N67    H68     0.860   .     S
N67    H69     0.860   .     S
N67    C76     1.429   .     S
C70    C71     1.388   .     D
C70    C77     1.378   .     S
C70    C79     1.528   .     S
C71    H72     0.928   1_655 S
C71    C73     1.374   1_554 S
H72    C71     0.928   1_455 S
C73    C71     1.374   1_556 S
C73    C74     1.413   .     D
C73    C80     1.538   1_655 S
C74    H75     0.931   .     S
C74    C76     1.374   .     S
C76    C77     1.421   1_556 D
C77    C76     1.421   1_554 D
C77    H78     0.930   .     S
C79    O60     1.224   1_545 D
C80    C73     1.538   1_455 S
C81    C82     1.430   .     S
C81    C88     1.338   .     D
C81    C90     1.484   .     S
C82    H83     0.932   .     S
C82    C84     1.387   .     D
C84    C85     1.386   .     S
C84    C91     1.511   .     S
C85    H86     0.933   .     S
C85    C87     1.383   .     D
C87    C88     1.396   .     S
C88    H89     0.931   .     S
C92    N66     1.344   1_554 A
C92    H93     0.934   .     S
C94    H95     0.931   .     S
C96    N62     1.347   1_545 A
C96    H97     0.930   .     S
C98    H99     0.928   .     S
