data_M(dhbq)
_audit_creation_date              2025-06-13
_audit_creation_method            'Materials Studio'
_symmetry_space_group_name_H-M    'P1'
_symmetry_Int_Tables_number       1
_symmetry_cell_setting            triclinic
loop_
_symmetry_equiv_pos_as_xyz
  x,y,z
_cell_length_a                    6.9050
_cell_length_b                    7.7210
_cell_length_c                    8.1120
_cell_angle_alpha                 90.0000
_cell_angle_beta                  114.2340
_cell_angle_gamma                 90.0000
loop_
_atom_site_label
_atom_site_type_symbol
_atom_site_fract_x
_atom_site_fract_y
_atom_site_fract_z
_atom_site_U_iso_or_equiv
_atom_site_adp_type
_atom_site_occupancy
O1     O     0.00150   0.17200   0.28930   0.01539  Uani   1.00
C2     C     0.00100   0.10000   0.14940   0.01276  Uani   1.00
H3     H     0.57900   0.89100   0.36300   0.05400  Uiso   1.00
O4     O     0.50150   0.67200   0.28930   0.01539  Uani   1.00
C5     C     0.50100   0.60000   0.14940   0.01276  Uani   1.00
H6     H     0.07900   0.39100   0.36300   0.05400  Uiso   1.00
O7     O    -0.00150   0.17200   0.71070   0.01539  Uani   1.00
C8     C    -0.00100   0.10000   0.85060   0.01276  Uani   1.00
H9     H     0.42100   0.89100   0.63700   0.05400  Uiso   1.00
O10    O     0.49850   0.67200   0.71070   0.01539  Uani   1.00
C11    C     0.49900   0.60000   0.85060   0.01276  Uani   1.00
H12    H     0.92100   0.39100   0.63700   0.05400  Uiso   1.00
O13    O    -0.00150  -0.17200   0.71070   0.01539  Uani   1.00
C14    C    -0.00100  -0.10000   0.85060   0.01276  Uani   1.00
H15    H     0.42100   0.10900   0.63700   0.05400  Uiso   1.00
O16    O     0.49850   0.32800   0.71070   0.01539  Uani   1.00
C17    C     0.49900   0.40000   0.85060   0.01276  Uani   1.00
H18    H     0.92100   0.60900   0.63700   0.05400  Uiso   1.00
O19    O     0.00150  -0.17200   0.28930   0.01539  Uani   1.00
C20    C     0.00100  -0.10000   0.14940   0.01276  Uani   1.00
H21    H     0.57900   0.10900   0.36300   0.05400  Uiso   1.00
O22    O     0.50150   0.32800   0.28930   0.01539  Uani   1.00
C23    C     0.50100   0.40000   0.14940   0.01276  Uani   1.00
H24    H     0.07900   0.60900   0.36300   0.05400  Uiso   1.00
Mn25   Mn    0.00000   0.00000   0.50000   0.01355  Uani   1.00
Mn26   Mn    0.50000   0.50000   0.50000   0.01355  Uani   1.00
O27    O    -0.34510   0.00000   0.37720   0.02871  Uani   1.00
O28    O     0.15490   0.50000   0.37720   0.02871  Uani   1.00
O29    O     0.34510   0.00000   0.62280   0.02871  Uani   1.00
O30    O     0.84510   0.50000   0.62280   0.02871  Uani   1.00
C31    C     0.00000   0.18970  -0.00000   0.01514  Uani   1.00
H32    H     0.00000   0.30600  -0.00000   0.00900  Uiso   1.00
C33    C     0.50000   0.68970   0.00000   0.01514  Uani   1.00
H34    H     0.50000   0.80600   0.00000   0.00900  Uiso   1.00
C35    C    -0.00000  -0.18970   0.00000   0.01514  Uani   1.00
H36    H    -0.00000   0.69400   0.00000   0.00900  Uiso   1.00
C37    C     0.50000   0.31030   0.00000   0.01514  Uani   1.00
H38    H     0.50000   0.19400   0.00000   0.00900  Uiso   1.00
loop_
_atom_site_aniso_label
_atom_site_aniso_U_11
_atom_site_aniso_U_22
_atom_site_aniso_U_33
_atom_site_aniso_U_12
_atom_site_aniso_U_13
_atom_site_aniso_U_23
O1        0.02580   0.00990   0.01150  -0.00060   0.00870  -0.00020
C2        0.01480   0.00920   0.01340   0.00010   0.00490  -0.00040
O4        0.02580   0.00990   0.01150  -0.00060   0.00870  -0.00020
C5        0.01480   0.00920   0.01340   0.00010   0.00490  -0.00040
O7        0.02580   0.00990   0.01150   0.00060   0.00870   0.00020
C8        0.01480   0.00920   0.01340  -0.00010   0.00490   0.00040
O10       0.02580   0.00990   0.01150   0.00060   0.00870   0.00020
C11       0.01480   0.00920   0.01340  -0.00010   0.00490   0.00040
O13       0.02580   0.00990   0.01150  -0.00060   0.00870  -0.00020
C14       0.01480   0.00920   0.01340   0.00010   0.00490  -0.00040
O16       0.02580   0.00990   0.01150  -0.00060   0.00870  -0.00020
C17       0.01480   0.00920   0.01340   0.00010   0.00490  -0.00040
O19       0.02580   0.00990   0.01150   0.00060   0.00870   0.00020
C20       0.01480   0.00920   0.01340  -0.00010   0.00490   0.00040
O22       0.02580   0.00990   0.01150   0.00060   0.00870   0.00020
C23       0.01480   0.00920   0.01340  -0.00010   0.00490   0.00040
Mn25      0.01950   0.01020   0.01100   0.00000   0.00630   0.00000
Mn26      0.01950   0.01020   0.01100   0.00000   0.00630   0.00000
O27       0.01770   0.01230   0.04600   0.00000   0.00280   0.00000
O28       0.01770   0.01230   0.04600   0.00000   0.00280   0.00000
O29       0.01770   0.01230   0.04600   0.00000   0.00280   0.00000
O30       0.01770   0.01230   0.04600   0.00000   0.00280   0.00000
C31       0.02150   0.01000   0.01500   0.00000   0.00860   0.00000
C33       0.02150   0.01000   0.01500   0.00000   0.00860   0.00000
C35       0.02150   0.01000   0.01500   0.00000   0.00860   0.00000
C37       0.02150   0.01000   0.01500   0.00000   0.00860   0.00000
loop_
_geom_bond_atom_site_label_1
_geom_bond_atom_site_label_2
_geom_bond_distance
_geom_bond_site_symmetry_2
_ccdc_geom_bond_type
O1     Mn25    2.168   .     S
O1     C2      1.262   .     S
C2     C31     1.393   .     S
C2     C20     1.544   .     S
O4     Mn26    2.168   .     S
O4     C5      1.262   .     S
C5     C33     1.393   .     S
C5     C23     1.544   .     S
O7     Mn25    2.168   .     S
O7     C8      1.262   .     S
C8     C31     1.393   1_556 S
C8     C14     1.544   .     S
O10    Mn26    2.168   .     S
O10    C11     1.262   .     S
C11    C33     1.393   1_556 S
C11    C17     1.544   .     S
O13    Mn25    2.168   .     S
O13    C14     1.262   .     S
C14    C35     1.393   1_556 S
O16    Mn26    2.168   .     S
O16    C17     1.262   .     S
C17    C37     1.393   1_556 S
O19    Mn25    2.168   .     S
O19    C20     1.262   .     S
C20    C35     1.393   .     S
O22    Mn26    2.168   .     S
O22    C23     1.262   .     S
C23    C37     1.393   .     S
Mn25   O27     2.173   .     S
Mn25   O29     2.173   .     S
Mn26   O28     2.173   .     S
Mn26   O30     2.173   .     S
C31    C8      1.393   1_554 S
C33    C11     1.393   1_554 S
C35    C14     1.393   1_554 S
C37    C17     1.393   1_554 S
