data_2310462
_audit_creation_date              2025-07-04
_audit_creation_method            'Materials Studio'
_symmetry_space_group_name_H-M    'P1'
_symmetry_Int_Tables_number       1
_symmetry_cell_setting            triclinic
loop_
_symmetry_equiv_pos_as_xyz
  x,y,z
_cell_length_a                    6.9233
_cell_length_b                    9.5923
_cell_length_c                    13.2731
_cell_angle_alpha                 90.0000
_cell_angle_beta                  90.0000
_cell_angle_gamma                 90.0000
loop_
_atom_site_label
_atom_site_type_symbol
_atom_site_fract_x
_atom_site_fract_y
_atom_site_fract_z
_atom_site_U_iso_or_equiv
_atom_site_adp_type
_atom_site_occupancy
Ca1    Ca    0.62257   0.70612   0.42318   0.00810  Uani   1.00
O2     O     0.58740   0.51400   0.31787   0.01487  Uani   1.00
O3     O     0.56060   0.37280   0.18489   0.01623  Uani   1.00
O4     O     0.29530   0.64050   0.45240   0.01197  Uani   1.00
O5     O     0.97630   0.63190   0.44522   0.01177  Uani   1.00
N6     N     0.18860   0.32290   0.21450   0.01280  Uani   1.00
N7     N     0.97130   0.42330   0.31070   0.01297  Uani   1.00
H8     H     0.86400   0.45100   0.32800   0.01600  Uiso   1.00
C9     C     0.49180   0.43760   0.25940   0.01133  Uani   1.00
C10    C     0.28000   0.41770   0.27580   0.00987  Uani   1.00
C11    C     0.14470   0.48220   0.33770   0.01003  Uani   1.00
C12    C     0.14090   0.59140   0.41680   0.00833  Uani   1.00
C13    C     0.00390   0.33010   0.23800   0.01407  Uani   1.00
H14    H     0.90600   0.27560   0.20700   0.01700  Uiso   1.00
Ca15   Ca    0.87743   0.29388   0.92318   0.00810  Uani   1.00
O16    O     0.91260   0.48600   0.81787   0.01487  Uani   1.00
O17    O     0.93940   0.62720   0.68489   0.01623  Uani   1.00
O18    O     0.20470   0.35950   0.95240   0.01197  Uani   1.00
O19    O     0.52370   0.36810   0.94522   0.01177  Uani   1.00
N20    N     0.31140   0.67710   0.71450   0.01280  Uani   1.00
N21    N     0.52870   0.57670   0.81070   0.01297  Uani   1.00
H22    H     0.63600   0.54900   0.82800   0.01600  Uiso   1.00
C23    C     0.00820   0.56240   0.75940   0.01133  Uani   1.00
C24    C     0.22000   0.58230   0.77580   0.00987  Uani   1.00
C25    C     0.35530   0.51780   0.83770   0.01003  Uani   1.00
C26    C     0.35910   0.40860   0.91680   0.00833  Uani   1.00
C27    C     0.49610   0.66990   0.73800   0.01407  Uani   1.00
H28    H     0.59400   0.72440   0.70700   0.01700  Uiso   1.00
Ca29   Ca    0.37743   0.20612   0.07682   0.00810  Uani   1.00
O30    O     0.41260   0.01400   0.18213   0.01487  Uani   1.00
O31    O     0.43940   0.87280   0.31511   0.01623  Uani   1.00
O32    O     0.70470   0.14050   0.04760   0.01197  Uani   1.00
O33    O     0.02370   0.13190   0.05478   0.01177  Uani   1.00
N34    N     0.81140   0.82290   0.28550   0.01280  Uani   1.00
N35    N     0.02870   0.92330   0.18930   0.01297  Uani   1.00
H36    H     0.13600   0.95100   0.17200   0.01600  Uiso   1.00
C37    C     0.50820   0.93760   0.24060   0.01133  Uani   1.00
C38    C     0.72000   0.91770   0.22420   0.00987  Uani   1.00
C39    C     0.85530   0.98220   0.16230   0.01003  Uani   1.00
C40    C     0.85910   0.09140   0.08320   0.00833  Uani   1.00
C41    C     0.99610   0.83010   0.26200   0.01407  Uani   1.00
H42    H     0.09400   0.77560   0.29300   0.01700  Uiso   1.00
Ca43   Ca    0.12257   0.79388   0.57682   0.00810  Uani   1.00
O44    O     0.08740   0.98600   0.68213   0.01487  Uani   1.00
O45    O     0.06060   0.12720   0.81511   0.01623  Uani   1.00
O46    O     0.79530   0.85950   0.54760   0.01197  Uani   1.00
O47    O     0.47630   0.86810   0.55478   0.01177  Uani   1.00
N48    N     0.68860   0.17710   0.78550   0.01280  Uani   1.00
N49    N     0.47130   0.07670   0.68930   0.01297  Uani   1.00
H50    H     0.36400   0.04900   0.67200   0.01600  Uiso   1.00
C51    C     0.99180   0.06240   0.74060   0.01133  Uani   1.00
C52    C     0.78000   0.08230   0.72420   0.00987  Uani   1.00
C53    C     0.64470   0.01780   0.66230   0.01003  Uani   1.00
C54    C     0.64090   0.90860   0.58320   0.00833  Uani   1.00
C55    C     0.50390   0.16990   0.76200   0.01407  Uani   1.00
H56    H     0.40600   0.22440   0.79300   0.01700  Uiso   1.00
loop_
_atom_site_aniso_label
_atom_site_aniso_U_11
_atom_site_aniso_U_22
_atom_site_aniso_U_33
_atom_site_aniso_U_12
_atom_site_aniso_U_13
_atom_site_aniso_U_23
Ca1       0.00600   0.01030   0.00800  -0.00040   0.00020  -0.00050
O2        0.00700   0.01990   0.01770  -0.00160  -0.00030  -0.00790
O3        0.01060   0.02240   0.01570  -0.00310   0.00470  -0.00880
O4        0.00660   0.01560   0.01370  -0.00330   0.00000  -0.00390
O5        0.00610   0.01640   0.01280   0.00060   0.00120  -0.00230
N6        0.01040   0.01420   0.01380  -0.00030   0.00040  -0.00430
N7        0.00520   0.01650   0.01720   0.00100   0.00220  -0.00520
C9        0.01010   0.01260   0.01130   0.00010   0.00060  -0.00080
C10       0.00650   0.01360   0.00950   0.00100   0.00100   0.00030
C11       0.00410   0.01290   0.01310  -0.00050  -0.00180  -0.00030
C12       0.00840   0.00770   0.00890   0.00110   0.00100   0.00330
C13       0.00930   0.01590   0.01700  -0.00210  -0.00120  -0.00690
Ca15      0.00600   0.01030   0.00800  -0.00040  -0.00020   0.00050
O16       0.00700   0.01990   0.01770  -0.00160   0.00030   0.00790
O17       0.01060   0.02240   0.01570  -0.00310  -0.00470   0.00880
O18       0.00660   0.01560   0.01370  -0.00330   0.00000   0.00390
O19       0.00610   0.01640   0.01280   0.00060  -0.00120   0.00230
N20       0.01040   0.01420   0.01380  -0.00030  -0.00040   0.00430
N21       0.00520   0.01650   0.01720   0.00100  -0.00220   0.00520
C23       0.01010   0.01260   0.01130   0.00010  -0.00060   0.00080
C24       0.00650   0.01360   0.00950   0.00100  -0.00100  -0.00030
C25       0.00410   0.01290   0.01310  -0.00050   0.00180   0.00030
C26       0.00840   0.00770   0.00890   0.00110  -0.00100  -0.00330
C27       0.00930   0.01590   0.01700  -0.00210   0.00120   0.00690
Ca29      0.00600   0.01030   0.00800   0.00040   0.00020   0.00050
O30       0.00700   0.01990   0.01770   0.00160  -0.00030   0.00790
O31       0.01060   0.02240   0.01570   0.00310   0.00470   0.00880
O32       0.00660   0.01560   0.01370   0.00330   0.00000   0.00390
O33       0.00610   0.01640   0.01280  -0.00060   0.00120   0.00230
N34       0.01040   0.01420   0.01380   0.00030   0.00040   0.00430
N35       0.00520   0.01650   0.01720  -0.00100   0.00220   0.00520
C37       0.01010   0.01260   0.01130  -0.00010   0.00060   0.00080
C38       0.00650   0.01360   0.00950  -0.00100   0.00100  -0.00030
C39       0.00410   0.01290   0.01310   0.00050  -0.00180   0.00030
C40       0.00840   0.00770   0.00890  -0.00110   0.00100  -0.00330
C41       0.00930   0.01590   0.01700   0.00210  -0.00120   0.00690
Ca43      0.00600   0.01030   0.00800   0.00040  -0.00020  -0.00050
O44       0.00700   0.01990   0.01770   0.00160   0.00030  -0.00790
O45       0.01060   0.02240   0.01570   0.00310  -0.00470  -0.00880
O46       0.00660   0.01560   0.01370   0.00330   0.00000  -0.00390
O47       0.00610   0.01640   0.01280  -0.00060  -0.00120  -0.00230
N48       0.01040   0.01420   0.01380   0.00030  -0.00040  -0.00430
N49       0.00520   0.01650   0.01720  -0.00100  -0.00220  -0.00520
C51       0.01010   0.01260   0.01130  -0.00010  -0.00060  -0.00080
C52       0.00650   0.01360   0.00950  -0.00100  -0.00100   0.00030
C53       0.00410   0.01290   0.01310   0.00050   0.00180  -0.00030
C54       0.00840   0.00770   0.00890  -0.00110  -0.00100   0.00330
C55       0.00930   0.01590   0.01700   0.00210   0.00120  -0.00690
loop_
_geom_bond_atom_site_label_1
_geom_bond_atom_site_label_2
_geom_bond_distance
_geom_bond_site_symmetry_2
_ccdc_geom_bond_type
Ca1    O2      2.326   .     S
Ca1    O4      2.383   .     S
Ca1    Ca43    4.105   .     S
Ca1    Ca43    4.105   1_655 S
Ca1    O31     2.494   .     S
Ca1    O46     2.514   .     S
Ca1    O47     2.548   .     S
Ca1    O5      2.567   .     S
Ca1    N34     2.511   .     S
O2     C9      1.256   .     S
O3     C9      1.261   .     S
O3     Ca29    2.494   .     S
O4     C12     1.260   .     S
O4     Ca43    2.514   .     S
O5     C12     1.262   1_655 S
O5     Ca43    2.548   1_655 S
N6     C10     1.375   .     S
N6     C13     1.318   .     S
N6     Ca29    2.511   .     S
N7     H8      0.822   .     S
N7     C11     1.374   1_655 S
N7     C13     1.335   1_655 S
C9     C10     1.495   .     S
C10    C11     1.391   .     S
C11    N7      1.374   1_455 S
C11    C12     1.483   .     S
C12    O5      1.262   1_455 S
C13    N7      1.335   1_455 S
C13    H14     0.950   1_455 S
H14    C13     0.950   1_655 S
Ca15   O16     2.326   .     S
Ca15   O18     2.383   1_655 S
Ca15   Ca29    4.105   1_656 S
Ca15   Ca29    4.105   1_556 S
Ca15   O45     2.494   1_655 S
Ca15   O32     2.514   1_556 S
Ca15   O33     2.548   1_656 S
Ca15   O19     2.567   .     S
Ca15   N48     2.511   .     S
O16    C23     1.256   1_655 S
O17    C23     1.261   1_655 S
O17    Ca43    2.494   1_655 S
O18    Ca15    2.383   1_455 S
O18    C26     1.260   .     S
O18    Ca29    2.514   1_556 S
O19    C26     1.262   .     S
O19    Ca29    2.548   1_556 S
N20    C24     1.375   .     S
N20    C27     1.318   .     S
N20    Ca43    2.511   .     S
N21    H22     0.822   .     S
N21    C25     1.374   .     S
N21    C27     1.335   .     S
C23    O16     1.256   1_455 S
C23    O17     1.261   1_455 S
C23    C24     1.495   .     S
C24    C25     1.391   .     S
C25    C26     1.483   .     S
C27    H28     0.950   .     S
Ca29   O30     2.326   .     S
Ca29   O32     2.383   .     S
Ca29   Ca15    4.105   1_554 S
Ca29   Ca15    4.105   1_454 S
Ca29   O18     2.514   1_554 S
Ca29   O19     2.548   1_554 S
Ca29   O33     2.567   .     S
O30    C37     1.256   1_545 S
O31    C37     1.261   .     S
O32    C40     1.260   .     S
O32    Ca15    2.514   1_554 S
O33    C40     1.262   1_455 S
O33    Ca15    2.548   1_454 S
N34    C38     1.375   .     S
N34    C41     1.318   .     S
N35    H36     0.822   .     S
N35    C39     1.374   1_455 S
N35    C41     1.335   1_455 S
C37    O30     1.256   1_565 S
C37    C38     1.495   .     S
C38    C39     1.391   .     S
C39    N35     1.374   1_655 S
C39    C40     1.483   1_565 S
C40    O33     1.262   1_655 S
C40    C39     1.483   1_545 S
C41    N35     1.335   1_655 S
C41    H42     0.950   1_655 S
H42    C41     0.950   1_455 S
Ca43   O44     2.326   .     S
Ca43   O46     2.383   1_455 S
Ca43   Ca1     4.105   1_455 S
Ca43   O17     2.494   1_455 S
Ca43   O5      2.548   1_455 S
Ca43   O47     2.567   .     S
O44    C51     1.256   1_465 S
O45    C51     1.261   1_455 S
O45    Ca15    2.494   1_455 S
O46    Ca43    2.383   1_655 S
O46    C54     1.260   .     S
O47    C54     1.262   .     S
N48    C52     1.375   .     S
N48    C55     1.318   .     S
N49    H50     0.822   .     S
N49    C53     1.374   .     S
N49    C55     1.335   .     S
C51    O44     1.256   1_645 S
C51    O45     1.261   1_655 S
C51    C52     1.495   .     S
C52    C53     1.391   .     S
C53    C54     1.483   1_545 S
C54    C53     1.483   1_565 S
C55    H56     0.950   .     S
