data_Ni-Asp
_audit_creation_date              2025-06-13
_audit_creation_method            'Materials Studio'
_symmetry_space_group_name_H-M    'P1'
_symmetry_Int_Tables_number       1
_symmetry_cell_setting            triclinic
loop_
_symmetry_equiv_pos_as_xyz
  x,y,z
_cell_length_a                    18.1860
_cell_length_b                    18.1860
_cell_length_c                    11.7060
_cell_angle_alpha                 90.0000
_cell_angle_beta                  90.0000
_cell_angle_gamma                 90.0000
loop_
_atom_site_label
_atom_site_type_symbol
_atom_site_fract_x
_atom_site_fract_y
_atom_site_fract_z
_atom_site_U_iso_or_equiv
_atom_site_adp_type
_atom_site_occupancy
Ni1    Ni    0.43940   0.95711   0.08910   0.07733  Uani   1.00
Ni2    Ni    0.40690   0.12424   0.06400   0.08000  Uani   1.00
O3     O     0.48610   0.14860   0.94540   0.07467  Uani   1.00
O4     O     0.33550   0.10880   0.19170   0.09433  Uani   1.00
O5     O     0.52790   0.91870   0.00170   0.07200  Uani   1.00
O6     O     0.48500   0.05680   0.14690   0.08900  Uani   1.00
O7     O     0.32830   0.17550   0.95610   0.08567  Uani   1.00
O8     O     0.37910   0.86890   0.04060   0.09033  Uani   1.00
O9     O     0.31990   0.30410   0.11860   0.12400  Uani   1.00
O10    O     0.36600   0.34460   0.28200   0.21200  Uiso   1.00
O11    O     0.39770   0.02930   0.97680   0.07167  Uani   1.00
N12    N     0.46220   0.21140   0.13590   0.08867  Uani   1.00
H13    H     0.44410   0.25410   0.10890   0.10700  Uiso   1.00
H14    H     0.45650   0.21090   0.21220   0.10700  Uiso   1.00
N15    N     0.20000   0.20790   0.86900   0.12333  Uani   1.00
H16    H     0.17670   0.16670   0.89100   0.14900  Uiso   1.00
H17    H     0.16730   0.23910   0.83720   0.14900  Uiso   1.00
C18    C     0.32670   0.05200   0.24100   0.09333  Uani   1.00
C19    C     0.54130   0.20490   0.10600   0.09133  Uani   1.00
H20    H     0.56500   0.25320   0.11080   0.11100  Uiso   1.00
C21    C     0.57530   0.15230   0.19600   0.08833  Uani   1.00
H22    H     0.62780   0.14900   0.18290   0.10400  Uiso   1.00
H23    H     0.56820   0.17340   0.27170   0.10400  Uiso   1.00
C24    C     0.54320   0.07570   0.19500   0.06700  Uiso   1.00
C25    C     0.34060   0.82630   0.10000   0.08500  Uiso   1.00
C26    C     0.26330   0.19100   0.78600   0.13667  Uani   1.00
H27    H     0.24540   0.15120   0.73600   0.16600  Uiso   1.00
C28    C     0.25480   0.28020   0.29200   0.11200  Uani   1.00
H29    H     0.26330   0.23530   0.33390   0.10000  Uiso   1.00
H30    H     0.23540   0.31660   0.34660   0.10000  Uiso   1.00
C31    C     0.31500   0.30500   0.22900   0.13900  Uiso   1.00
H32    H     0.52190   0.15540   0.71510   0.10000  Uiso   1.00
Ni33   Ni    0.56060   0.04289   0.58910   0.07733  Uani   1.00
Ni34   Ni    0.59310   0.87576   0.56400   0.08000  Uani   1.00
O35    O     0.51390   0.85140   0.44540   0.07467  Uani   1.00
O36    O     0.66450   0.89120   0.69170   0.09433  Uani   1.00
O37    O     0.47210   0.08130   0.50170   0.07200  Uani   1.00
O38    O     0.51500   0.94320   0.64690   0.08900  Uani   1.00
O39    O     0.67170   0.82450   0.45610   0.08567  Uani   1.00
O40    O     0.62090   0.13110   0.54060   0.09033  Uani   1.00
O41    O     0.68010   0.69590   0.61860   0.12400  Uani   1.00
O42    O     0.63400   0.65540   0.78200   0.21200  Uiso   1.00
O43    O     0.60230   0.97070   0.47680   0.07167  Uani   1.00
N44    N     0.53780   0.78860   0.63590   0.08867  Uani   1.00
H45    H     0.55590   0.74590   0.60890   0.10700  Uiso   1.00
H46    H     0.54350   0.78910   0.71220   0.10700  Uiso   1.00
N47    N     0.80000   0.79210   0.36900   0.12333  Uani   1.00
H48    H     0.82330   0.83330   0.39100   0.14900  Uiso   1.00
H49    H     0.83270   0.76090   0.33720   0.14900  Uiso   1.00
C50    C     0.67330   0.94800   0.74100   0.09333  Uani   1.00
C51    C     0.45870   0.79510   0.60600   0.09133  Uani   1.00
H52    H     0.43500   0.74680   0.61080   0.11100  Uiso   1.00
C53    C     0.42470   0.84770   0.69600   0.08833  Uani   1.00
H54    H     0.37220   0.85100   0.68290   0.10400  Uiso   1.00
H55    H     0.43180   0.82660   0.77170   0.10400  Uiso   1.00
C56    C     0.45680   0.92430   0.69500   0.06700  Uiso   1.00
C57    C     0.65940   0.17370   0.60000   0.08500  Uiso   1.00
C58    C     0.73670   0.80900   0.28600   0.13667  Uani   1.00
H59    H     0.75460   0.84880   0.23600   0.16600  Uiso   1.00
C60    C     0.74520   0.71980   0.79200   0.11200  Uani   1.00
H61    H     0.73670   0.76470   0.83390   0.10000  Uiso   1.00
H62    H     0.76460   0.68340   0.84660   0.10000  Uiso   1.00
C63    C     0.68500   0.69500   0.72900   0.13900  Uiso   1.00
H64    H     0.47810   0.84460   0.21510   0.10000  Uiso   1.00
Ni65   Ni    0.54289   0.93940   0.33910   0.07733  Uani   1.00
Ni66   Ni    0.37576   0.90690   0.31400   0.08000  Uani   1.00
O67    O     0.35140   0.98610   0.19540   0.07467  Uani   1.00
O68    O     0.39120   0.83550   0.44170   0.09433  Uani   1.00
O69    O     0.58130   0.02790   0.25170   0.07200  Uani   1.00
O70    O     0.44320   0.98500   0.39690   0.08900  Uani   1.00
O71    O     0.32450   0.82830   0.20610   0.08567  Uani   1.00
O72    O     0.63110   0.87910   0.29060   0.09033  Uani   1.00
O73    O     0.19590   0.81990   0.36860   0.12400  Uani   1.00
O74    O     0.15540   0.86600   0.53200   0.21200  Uiso   1.00
O75    O     0.47070   0.89770   0.22680   0.07167  Uani   1.00
N76    N     0.28860   0.96220   0.38590   0.08867  Uani   1.00
H77    H     0.24590   0.94410   0.35890   0.10700  Uiso   1.00
H78    H     0.28910   0.95650   0.46220   0.10700  Uiso   1.00
N79    N     0.29210   0.70000   0.11900   0.12333  Uani   1.00
H80    H     0.33330   0.67670   0.14100   0.14900  Uiso   1.00
H81    H     0.26090   0.66730   0.08720   0.14900  Uiso   1.00
C82    C     0.44800   0.82670   0.49100   0.09333  Uani   1.00
C83    C     0.29510   0.04130   0.35600   0.09133  Uani   1.00
H84    H     0.24680   0.06500   0.36080   0.11100  Uiso   1.00
C85    C     0.34770   0.07530   0.44600   0.08833  Uani   1.00
H86    H     0.35100   0.12780   0.43290   0.10400  Uiso   1.00
H87    H     0.32660   0.06820   0.52170   0.10400  Uiso   1.00
C88    C     0.42430   0.04320   0.44500   0.06700  Uiso   1.00
C89    C     0.67370   0.84060   0.35000   0.08500  Uiso   1.00
C90    C     0.30900   0.76330   0.03600   0.13667  Uani   1.00
H91    H     0.34880   0.74540   0.98600   0.16600  Uiso   1.00
C92    C     0.21980   0.75480   0.54200   0.11200  Uani   1.00
H93    H     0.26470   0.76330   0.58390   0.10000  Uiso   1.00
H94    H     0.18340   0.73540   0.59660   0.10000  Uiso   1.00
C95    C     0.19500   0.81500   0.47900   0.13900  Uiso   1.00
H96    H     0.34460   0.02190   0.96510   0.10000  Uiso   1.00
Ni97   Ni    0.45711   0.06060   0.83910   0.07733  Uani   1.00
Ni98   Ni    0.62424   0.09310   0.81400   0.08000  Uani   1.00
O99    O     0.64860   0.01390   0.69540   0.07467  Uani   1.00
O100   O     0.60880   0.16450   0.94170   0.09433  Uani   1.00
O101   O     0.41870   0.97210   0.75170   0.07200  Uani   1.00
O102   O     0.55680   0.01500   0.89690   0.08900  Uani   1.00
O103   O     0.67550   0.17170   0.70610   0.08567  Uani   1.00
O104   O     0.36890   0.12090   0.79060   0.09033  Uani   1.00
O105   O     0.80410   0.18010   0.86860   0.12400  Uani   1.00
O106   O     0.84460   0.13400   0.03200   0.21200  Uiso   1.00
O107   O     0.52930   0.10230   0.72680   0.07167  Uani   1.00
N108   N     0.71140   0.03780   0.88590   0.08867  Uani   1.00
H109   H     0.75410   0.05590   0.85890   0.10700  Uiso   1.00
H110   H     0.71090   0.04350   0.96220   0.10700  Uiso   1.00
N111   N     0.70790   0.30000   0.61900   0.12333  Uani   1.00
H112   H     0.66670   0.32330   0.64100   0.14900  Uiso   1.00
H113   H     0.73910   0.33270   0.58720   0.14900  Uiso   1.00
C114   C     0.55200   0.17330   0.99100   0.09333  Uani   1.00
C115   C     0.70490   0.95870   0.85600   0.09133  Uani   1.00
H116   H     0.75320   0.93500   0.86080   0.11100  Uiso   1.00
C117   C     0.65230   0.92470   0.94600   0.08833  Uani   1.00
H118   H     0.64900   0.87220   0.93290   0.10400  Uiso   1.00
H119   H     0.67340   0.93180   0.02170   0.10400  Uiso   1.00
C120   C     0.57570   0.95680   0.94500   0.06700  Uiso   1.00
C121   C     0.32630   0.15940   0.85000   0.08500  Uiso   1.00
C122   C     0.69100   0.23670   0.53600   0.13667  Uani   1.00
H123   H     0.65120   0.25460   0.48600   0.16600  Uiso   1.00
C124   C     0.78020   0.24520   0.04200   0.11200  Uani   1.00
H125   H     0.73530   0.23670   0.08390   0.10000  Uiso   1.00
H126   H     0.81660   0.26460   0.09660   0.10000  Uiso   1.00
C127   C     0.80500   0.18500   0.97900   0.13900  Uiso   1.00
H128   H     0.65540   0.97810   0.46510   0.10000  Uiso   1.00
Ni129  Ni    0.06060   0.45711   0.16090   0.07733  Uani   1.00
Ni130  Ni    0.09310   0.62424   0.18600   0.08000  Uani   1.00
O131   O     0.01390   0.64860   0.30460   0.07467  Uani   1.00
O132   O     0.16450   0.60880   0.05830   0.09433  Uani   1.00
O133   O     0.97210   0.41870   0.24830   0.07200  Uani   1.00
O134   O     0.01500   0.55680   0.10310   0.08900  Uani   1.00
O135   O     0.17170   0.67550   0.29390   0.08567  Uani   1.00
O136   O     0.12090   0.36890   0.20940   0.09033  Uani   1.00
O137   O     0.18010   0.80410   0.13140   0.12400  Uani   1.00
O138   O     0.13400   0.84460   0.96800   0.21200  Uiso   1.00
O139   O     0.10230   0.52930   0.27320   0.07167  Uani   1.00
N140   N     0.03780   0.71140   0.11410   0.08867  Uani   1.00
H141   H     0.05590   0.75410   0.14110   0.10700  Uiso   1.00
H142   H     0.04350   0.71090   0.03780   0.10700  Uiso   1.00
N143   N     0.30000   0.70790   0.38100   0.12333  Uani   1.00
H144   H     0.32330   0.66670   0.35900   0.14900  Uiso   1.00
H145   H     0.33270   0.73910   0.41280   0.14900  Uiso   1.00
C146   C     0.17330   0.55200   0.00900   0.09333  Uani   1.00
C147   C     0.95870   0.70490   0.14400   0.09133  Uani   1.00
H148   H     0.93500   0.75320   0.13920   0.11100  Uiso   1.00
C149   C     0.92470   0.65230   0.05400   0.08833  Uani   1.00
H150   H     0.87220   0.64900   0.06710   0.10400  Uiso   1.00
H151   H     0.93180   0.67340   0.97830   0.10400  Uiso   1.00
C152   C     0.95680   0.57570   0.05500   0.06700  Uiso   1.00
C153   C     0.15940   0.32630   0.15000   0.08500  Uiso   1.00
C154   C     0.23670   0.69100   0.46400   0.13667  Uani   1.00
H155   H     0.25460   0.65120   0.51400   0.16600  Uiso   1.00
C156   C     0.24520   0.78020   0.95800   0.11200  Uani   1.00
H157   H     0.23670   0.73530   0.91610   0.10000  Uiso   1.00
H158   H     0.26460   0.81660   0.90340   0.10000  Uiso   1.00
C159   C     0.18500   0.80500   0.02100   0.13900  Uiso   1.00
H160   H     0.97810   0.65540   0.53490   0.10000  Uiso   1.00
Ni161  Ni    0.93940   0.54289   0.66090   0.07733  Uani   1.00
Ni162  Ni    0.90690   0.37576   0.68600   0.08000  Uani   1.00
O163   O     0.98610   0.35140   0.80460   0.07467  Uani   1.00
O164   O     0.83550   0.39120   0.55830   0.09433  Uani   1.00
O165   O     0.02790   0.58130   0.74830   0.07200  Uani   1.00
O166   O     0.98500   0.44320   0.60310   0.08900  Uani   1.00
O167   O     0.82830   0.32450   0.79390   0.08567  Uani   1.00
O168   O     0.87910   0.63110   0.70940   0.09033  Uani   1.00
O169   O     0.81990   0.19590   0.63140   0.12400  Uani   1.00
O170   O     0.86600   0.15540   0.46800   0.21200  Uiso   1.00
O171   O     0.89770   0.47070   0.77320   0.07167  Uani   1.00
N172   N     0.96220   0.28860   0.61410   0.08867  Uani   1.00
H173   H     0.94410   0.24590   0.64110   0.10700  Uiso   1.00
H174   H     0.95650   0.28910   0.53780   0.10700  Uiso   1.00
N175   N     0.70000   0.29210   0.88100   0.12333  Uani   1.00
H176   H     0.67670   0.33330   0.85900   0.14900  Uiso   1.00
H177   H     0.66730   0.26090   0.91280   0.14900  Uiso   1.00
C178   C     0.82670   0.44800   0.50900   0.09333  Uani   1.00
C179   C     0.04130   0.29510   0.64400   0.09133  Uani   1.00
H180   H     0.06500   0.24680   0.63920   0.11100  Uiso   1.00
C181   C     0.07530   0.34770   0.55400   0.08833  Uani   1.00
H182   H     0.12780   0.35100   0.56710   0.10400  Uiso   1.00
H183   H     0.06820   0.32660   0.47830   0.10400  Uiso   1.00
C184   C     0.04320   0.42430   0.55500   0.06700  Uiso   1.00
C185   C     0.84060   0.67370   0.65000   0.08500  Uiso   1.00
C186   C     0.76330   0.30900   0.96400   0.13667  Uani   1.00
H187   H     0.74540   0.34880   0.01400   0.16600  Uiso   1.00
C188   C     0.75480   0.21980   0.45800   0.11200  Uani   1.00
H189   H     0.76330   0.26470   0.41610   0.10000  Uiso   1.00
H190   H     0.73540   0.18340   0.40340   0.10000  Uiso   1.00
C191   C     0.81500   0.19500   0.52100   0.13900  Uiso   1.00
H192   H     0.02190   0.34460   0.03490   0.10000  Uiso   1.00
Ni193  Ni    0.95711   0.43940   0.91090   0.07733  Uani   1.00
Ni194  Ni    0.12424   0.40690   0.93600   0.08000  Uani   1.00
O195   O     0.14860   0.48610   0.05460   0.07467  Uani   1.00
O196   O     0.10880   0.33550   0.80830   0.09433  Uani   1.00
O197   O     0.91870   0.52790   0.99830   0.07200  Uani   1.00
O198   O     0.05680   0.48500   0.85310   0.08900  Uani   1.00
O199   O     0.17550   0.32830   0.04390   0.08567  Uani   1.00
O200   O     0.86890   0.37910   0.95940   0.09033  Uani   1.00
O201   O     0.30410   0.31990   0.88140   0.12400  Uani   1.00
O202   O     0.34460   0.36600   0.71800   0.21200  Uiso   1.00
O203   O     0.02930   0.39770   0.02320   0.07167  Uani   1.00
N204   N     0.21140   0.46220   0.86410   0.08867  Uani   1.00
H205   H     0.25410   0.44410   0.89110   0.10700  Uiso   1.00
H206   H     0.21090   0.45650   0.78780   0.10700  Uiso   1.00
N207   N     0.20790   0.20000   0.13100   0.12333  Uani   1.00
H208   H     0.16670   0.17670   0.10900   0.14900  Uiso   1.00
H209   H     0.23910   0.16730   0.16280   0.14900  Uiso   1.00
C210   C     0.05200   0.32670   0.75900   0.09333  Uani   1.00
C211   C     0.20490   0.54130   0.89400   0.09133  Uani   1.00
H212   H     0.25320   0.56500   0.88920   0.11100  Uiso   1.00
C213   C     0.15230   0.57530   0.80400   0.08833  Uani   1.00
H214   H     0.14900   0.62780   0.81710   0.10400  Uiso   1.00
H215   H     0.17340   0.56820   0.72830   0.10400  Uiso   1.00
C216   C     0.07570   0.54320   0.80500   0.06700  Uiso   1.00
C217   C     0.82630   0.34060   0.90000   0.08500  Uiso   1.00
C218   C     0.19100   0.26330   0.21400   0.13667  Uani   1.00
H219   H     0.15120   0.24540   0.26400   0.16600  Uiso   1.00
C220   C     0.28020   0.25480   0.70800   0.11200  Uani   1.00
H221   H     0.23530   0.26330   0.66610   0.10000  Uiso   1.00
H222   H     0.31660   0.23540   0.65340   0.10000  Uiso   1.00
C223   C     0.30500   0.31500   0.77100   0.13900  Uiso   1.00
H224   H     0.15540   0.52190   0.28490   0.10000  Uiso   1.00
Ni225  Ni    0.04289   0.56060   0.41090   0.07733  Uani   1.00
Ni226  Ni    0.87576   0.59310   0.43600   0.08000  Uani   1.00
O227   O     0.85140   0.51390   0.55460   0.07467  Uani   1.00
O228   O     0.89120   0.66450   0.30830   0.09433  Uani   1.00
O229   O     0.08130   0.47210   0.49830   0.07200  Uani   1.00
O230   O     0.94320   0.51500   0.35310   0.08900  Uani   1.00
O231   O     0.82450   0.67170   0.54390   0.08567  Uani   1.00
O232   O     0.13110   0.62090   0.45940   0.09033  Uani   1.00
O233   O     0.69590   0.68010   0.38140   0.12400  Uani   1.00
O234   O     0.65540   0.63400   0.21800   0.21200  Uiso   1.00
O235   O     0.97070   0.60230   0.52320   0.07167  Uani   1.00
N236   N     0.78860   0.53780   0.36410   0.08867  Uani   1.00
H237   H     0.74590   0.55590   0.39110   0.10700  Uiso   1.00
H238   H     0.78910   0.54350   0.28780   0.10700  Uiso   1.00
N239   N     0.79210   0.80000   0.63100   0.12333  Uani   1.00
H240   H     0.83330   0.82330   0.60900   0.14900  Uiso   1.00
H241   H     0.76090   0.83270   0.66280   0.14900  Uiso   1.00
C242   C     0.94800   0.67330   0.25900   0.09333  Uani   1.00
C243   C     0.79510   0.45870   0.39400   0.09133  Uani   1.00
H244   H     0.74680   0.43500   0.38920   0.11100  Uiso   1.00
C245   C     0.84770   0.42470   0.30400   0.08833  Uani   1.00
H246   H     0.85100   0.37220   0.31710   0.10400  Uiso   1.00
H247   H     0.82660   0.43180   0.22830   0.10400  Uiso   1.00
C248   C     0.92430   0.45680   0.30500   0.06700  Uiso   1.00
C249   C     0.17370   0.65940   0.40000   0.08500  Uiso   1.00
C250   C     0.80900   0.73670   0.71400   0.13667  Uani   1.00
H251   H     0.84880   0.75460   0.76400   0.16600  Uiso   1.00
C252   C     0.71980   0.74520   0.20800   0.11200  Uani   1.00
H253   H     0.76470   0.73670   0.16610   0.10000  Uiso   1.00
H254   H     0.68340   0.76460   0.15340   0.10000  Uiso   1.00
C255   C     0.69500   0.68500   0.27100   0.13900  Uiso   1.00
H256   H     0.84460   0.47810   0.78490   0.10000  Uiso   1.00
Ni257  Ni    0.25560   0.25560   0.00000   0.08833  Uani   1.00
Ni258  Ni    0.74440   0.74440   0.50000   0.08833  Uani   1.00
Ni259  Ni    0.24440   0.75560   0.25000   0.08833  Uani   1.00
Ni260  Ni    0.75560   0.24440   0.75000   0.08833  Uani   1.00
loop_
_atom_site_aniso_label
_atom_site_aniso_U_11
_atom_site_aniso_U_22
_atom_site_aniso_U_33
_atom_site_aniso_U_12
_atom_site_aniso_U_13
_atom_site_aniso_U_23
Ni1       0.08400   0.08100   0.06700   0.00380   0.00330  -0.00310
Ni2       0.08800   0.07800   0.07400   0.00880   0.00300  -0.00060
O3        0.09300   0.06900   0.06200   0.00900   0.02200   0.00600
O4        0.10300   0.11200   0.06800   0.03100   0.02200   0.01300
O5        0.07900   0.06100   0.07600   0.00800   0.03500   0.01400
O6        0.06900   0.11900   0.07900   0.00000  -0.01100   0.00700
O7        0.08700   0.09400   0.07600  -0.01600  -0.01300   0.01100
O8        0.08500   0.10000   0.08600  -0.01400   0.03400   0.02300
O9        0.14000   0.16000   0.07200   0.00400  -0.02500  -0.03300
O11       0.07300   0.07700   0.06500   0.01200   0.00500  -0.03100
N12       0.13000   0.07500   0.06100   0.02600  -0.00800  -0.00700
N15       0.10000   0.14000   0.13000   0.05800  -0.00700  -0.00300
C18       0.07000   0.13000   0.08000   0.06000   0.00300  -0.02000
C19       0.04400   0.13000   0.10000   0.02000   0.03300  -0.01000
C21       0.11000   0.08200   0.07300  -0.00800  -0.02400   0.01000
C26       0.11000   0.21000   0.09000   0.08000   0.02000  -0.04000
C28       0.12000   0.14000   0.07600  -0.02000  -0.03000   0.05000
Ni33      0.08400   0.08100   0.06700   0.00380  -0.00330   0.00310
Ni34      0.08800   0.07800   0.07400   0.00880  -0.00300   0.00060
O35       0.09300   0.06900   0.06200   0.00900  -0.02200  -0.00600
O36       0.10300   0.11200   0.06800   0.03100  -0.02200  -0.01300
O37       0.07900   0.06100   0.07600   0.00800  -0.03500  -0.01400
O38       0.06900   0.11900   0.07900   0.00000   0.01100  -0.00700
O39       0.08700   0.09400   0.07600  -0.01600   0.01300  -0.01100
O40       0.08500   0.10000   0.08600  -0.01400  -0.03400  -0.02300
O41       0.14000   0.16000   0.07200   0.00400   0.02500   0.03300
O43       0.07300   0.07700   0.06500   0.01200  -0.00500   0.03100
N44       0.13000   0.07500   0.06100   0.02600   0.00800   0.00700
N47       0.10000   0.14000   0.13000   0.05800   0.00700   0.00300
C50       0.07000   0.13000   0.08000   0.06000  -0.00300   0.02000
C51       0.04400   0.13000   0.10000   0.02000  -0.03300   0.01000
C53       0.11000   0.08200   0.07300  -0.00800   0.02400  -0.01000
C58       0.11000   0.21000   0.09000   0.08000  -0.02000   0.04000
C60       0.12000   0.14000   0.07600  -0.02000   0.03000  -0.05000
Ni65      0.08100   0.08400   0.06700  -0.00380   0.00310   0.00330
Ni66      0.07800   0.08800   0.07400  -0.00880   0.00060   0.00300
O67       0.06900   0.09300   0.06200  -0.00900  -0.00600   0.02200
O68       0.11200   0.10300   0.06800  -0.03100  -0.01300   0.02200
O69       0.06100   0.07900   0.07600  -0.00800  -0.01400   0.03500
O70       0.11900   0.06900   0.07900   0.00000  -0.00700  -0.01100
O71       0.09400   0.08700   0.07600   0.01600  -0.01100  -0.01300
O72       0.10000   0.08500   0.08600   0.01400  -0.02300   0.03400
O73       0.16000   0.14000   0.07200  -0.00400   0.03300  -0.02500
O75       0.07700   0.07300   0.06500  -0.01200   0.03100   0.00500
N76       0.07500   0.13000   0.06100  -0.02600   0.00700  -0.00800
N79       0.14000   0.10000   0.13000  -0.05800   0.00300  -0.00700
C82       0.13000   0.07000   0.08000  -0.06000   0.02000   0.00300
C83       0.13000   0.04400   0.10000  -0.02000   0.01000   0.03300
C85       0.08200   0.11000   0.07300   0.00800  -0.01000  -0.02400
C90       0.21000   0.11000   0.09000  -0.08000   0.04000   0.02000
C92       0.14000   0.12000   0.07600   0.02000  -0.05000  -0.03000
Ni97      0.08100   0.08400   0.06700  -0.00380  -0.00310  -0.00330
Ni98      0.07800   0.08800   0.07400  -0.00880  -0.00060  -0.00300
O99       0.06900   0.09300   0.06200  -0.00900   0.00600  -0.02200
O100      0.11200   0.10300   0.06800  -0.03100   0.01300  -0.02200
O101      0.06100   0.07900   0.07600  -0.00800   0.01400  -0.03500
O102      0.11900   0.06900   0.07900   0.00000   0.00700   0.01100
O103      0.09400   0.08700   0.07600   0.01600   0.01100   0.01300
O104      0.10000   0.08500   0.08600   0.01400   0.02300  -0.03400
O105      0.16000   0.14000   0.07200  -0.00400  -0.03300   0.02500
O107      0.07700   0.07300   0.06500  -0.01200  -0.03100  -0.00500
N108      0.07500   0.13000   0.06100  -0.02600  -0.00700   0.00800
N111      0.14000   0.10000   0.13000  -0.05800  -0.00300   0.00700
C114      0.13000   0.07000   0.08000  -0.06000  -0.02000  -0.00300
C115      0.13000   0.04400   0.10000  -0.02000  -0.01000  -0.03300
C117      0.08200   0.11000   0.07300   0.00800   0.01000   0.02400
C122      0.21000   0.11000   0.09000  -0.08000  -0.04000  -0.02000
C124      0.14000   0.12000   0.07600   0.02000   0.05000   0.03000
Ni129     0.08400   0.08100   0.06700  -0.00380   0.00330   0.00310
Ni130     0.08800   0.07800   0.07400  -0.00880   0.00300   0.00060
O131      0.09300   0.06900   0.06200  -0.00900   0.02200  -0.00600
O132      0.10300   0.11200   0.06800  -0.03100   0.02200  -0.01300
O133      0.07900   0.06100   0.07600  -0.00800   0.03500  -0.01400
O134      0.06900   0.11900   0.07900   0.00000  -0.01100  -0.00700
O135      0.08700   0.09400   0.07600   0.01600  -0.01300  -0.01100
O136      0.08500   0.10000   0.08600   0.01400   0.03400  -0.02300
O137      0.14000   0.16000   0.07200  -0.00400  -0.02500   0.03300
O139      0.07300   0.07700   0.06500  -0.01200   0.00500   0.03100
N140      0.13000   0.07500   0.06100  -0.02600  -0.00800   0.00700
N143      0.10000   0.14000   0.13000  -0.05800  -0.00700   0.00300
C146      0.07000   0.13000   0.08000  -0.06000   0.00300   0.02000
C147      0.04400   0.13000   0.10000  -0.02000   0.03300   0.01000
C149      0.11000   0.08200   0.07300   0.00800  -0.02400  -0.01000
C154      0.11000   0.21000   0.09000  -0.08000   0.02000   0.04000
C156      0.12000   0.14000   0.07600   0.02000  -0.03000  -0.05000
Ni161     0.08400   0.08100   0.06700  -0.00380  -0.00330  -0.00310
Ni162     0.08800   0.07800   0.07400  -0.00880  -0.00300  -0.00060
O163      0.09300   0.06900   0.06200  -0.00900  -0.02200   0.00600
O164      0.10300   0.11200   0.06800  -0.03100  -0.02200   0.01300
O165      0.07900   0.06100   0.07600  -0.00800  -0.03500   0.01400
O166      0.06900   0.11900   0.07900   0.00000   0.01100   0.00700
O167      0.08700   0.09400   0.07600   0.01600   0.01300   0.01100
O168      0.08500   0.10000   0.08600   0.01400  -0.03400   0.02300
O169      0.14000   0.16000   0.07200  -0.00400   0.02500  -0.03300
O171      0.07300   0.07700   0.06500  -0.01200  -0.00500  -0.03100
N172      0.13000   0.07500   0.06100  -0.02600   0.00800  -0.00700
N175      0.10000   0.14000   0.13000  -0.05800   0.00700  -0.00300
C178      0.07000   0.13000   0.08000  -0.06000  -0.00300  -0.02000
C179      0.04400   0.13000   0.10000  -0.02000  -0.03300  -0.01000
C181      0.11000   0.08200   0.07300   0.00800   0.02400   0.01000
C186      0.11000   0.21000   0.09000  -0.08000  -0.02000  -0.04000
C188      0.12000   0.14000   0.07600   0.02000   0.03000   0.05000
Ni193     0.08100   0.08400   0.06700   0.00380   0.00310  -0.00330
Ni194     0.07800   0.08800   0.07400   0.00880   0.00060  -0.00300
O195      0.06900   0.09300   0.06200   0.00900  -0.00600  -0.02200
O196      0.11200   0.10300   0.06800   0.03100  -0.01300  -0.02200
O197      0.06100   0.07900   0.07600   0.00800  -0.01400  -0.03500
O198      0.11900   0.06900   0.07900   0.00000  -0.00700   0.01100
O199      0.09400   0.08700   0.07600  -0.01600  -0.01100   0.01300
O200      0.10000   0.08500   0.08600  -0.01400  -0.02300  -0.03400
O201      0.16000   0.14000   0.07200   0.00400   0.03300   0.02500
O203      0.07700   0.07300   0.06500   0.01200   0.03100  -0.00500
N204      0.07500   0.13000   0.06100   0.02600   0.00700   0.00800
N207      0.14000   0.10000   0.13000   0.05800   0.00300   0.00700
C210      0.13000   0.07000   0.08000   0.06000   0.02000  -0.00300
C211      0.13000   0.04400   0.10000   0.02000   0.01000  -0.03300
C213      0.08200   0.11000   0.07300  -0.00800  -0.01000   0.02400
C218      0.21000   0.11000   0.09000   0.08000   0.04000  -0.02000
C220      0.14000   0.12000   0.07600  -0.02000  -0.05000   0.03000
Ni225     0.08100   0.08400   0.06700   0.00380  -0.00310   0.00330
Ni226     0.07800   0.08800   0.07400   0.00880  -0.00060   0.00300
O227      0.06900   0.09300   0.06200   0.00900   0.00600   0.02200
O228      0.11200   0.10300   0.06800   0.03100   0.01300   0.02200
O229      0.06100   0.07900   0.07600   0.00800   0.01400   0.03500
O230      0.11900   0.06900   0.07900   0.00000   0.00700  -0.01100
O231      0.09400   0.08700   0.07600  -0.01600   0.01100  -0.01300
O232      0.10000   0.08500   0.08600  -0.01400   0.02300   0.03400
O233      0.16000   0.14000   0.07200   0.00400  -0.03300  -0.02500
O235      0.07700   0.07300   0.06500   0.01200  -0.03100   0.00500
N236      0.07500   0.13000   0.06100   0.02600  -0.00700  -0.00800
N239      0.14000   0.10000   0.13000   0.05800  -0.00300  -0.00700
C242      0.13000   0.07000   0.08000   0.06000  -0.02000   0.00300
C243      0.13000   0.04400   0.10000   0.02000  -0.01000   0.03300
C245      0.08200   0.11000   0.07300  -0.00800   0.01000  -0.02400
C250      0.21000   0.11000   0.09000   0.08000  -0.04000   0.02000
C252      0.14000   0.12000   0.07600  -0.02000   0.05000  -0.03000
Ni257     0.09300   0.09300   0.07900   0.01300  -0.00660   0.00660
Ni258     0.09300   0.09300   0.07900   0.01300   0.00660  -0.00660
Ni259     0.09300   0.09300   0.07900  -0.01300  -0.00660  -0.00660
Ni260     0.09300   0.09300   0.07900  -0.01300   0.00660   0.00660
loop_
_geom_bond_atom_site_label_1
_geom_bond_atom_site_label_2
_geom_bond_distance
_geom_bond_site_symmetry_2
_ccdc_geom_bond_type
Ni1    O11     2.007   1_564 S
Ni1    O8      2.024   .     S
Ni1    O5      2.031   .     S
Ni1    O6      2.105   1_565 S
Ni1    O75     2.022   .     S
Ni1    O67     2.095   .     S
Ni2    O4      2.000   .     S
Ni2    O11     2.013   1_554 S
Ni2    O3      2.049   1_554 S
Ni2    N12     2.057   .     S
Ni2    O6      2.113   .     S
Ni2    O7      2.123   1_554 S
O3     Ni2     2.049   1_556 S
O3     Ni97    2.095   .     S
O3     C114    1.387   .     S
O4     C18     1.194   .     D
O5     C120    1.295   1_554 D
O6     Ni1     2.105   1_545 S
O6     C24     1.247   .     S
O7     Ni2     2.123   1_556 S
O7     Ni257   2.033   1_556 S
O7     C121    1.277   .     S
O8     C25     1.255   .     D
O9     Ni257   2.018   .     S
O9     C31     1.296   .     S
O10    C31     1.328   .     D
O11    Ni1     2.007   1_546 S
O11    Ni2     2.013   1_556 S
O11    Ni97    2.022   .     S
O11    H96     0.985   .     S
N12    C19     1.485   .     S
N12    H13     0.901   .     S
N12    H14     0.899   .     S
N15    Ni257   2.031   1_556 S
N15    C26     1.537   .     S
N15    H16     0.898   .     S
N15    H17     0.902   .     S
C18    O67     1.387   1_545 S
C18    C83     1.477   .     S
C19    C21     1.552   .     S
C19    C114    1.477   1_554 S
C19    H20     0.980   .     S
C21    C24     1.510   .     S
C21    H22     0.969   .     S
C21    H23     0.974   .     S
C24    O69     1.295   .     D
C25    O71     1.277   .     S
C25    C90     1.485   .     S
C26    C121    1.485   .     S
C26    C220    1.508   .     S
C26    H27     0.986   .     S
C28    C31     1.395   .     S
C28    C218    1.508   .     S
C28    H29     0.965   .     S
C28    H30     0.985   .     S
H32    O107    0.985   .     S
Ni33   O43     2.007   1_545 S
Ni33   O40     2.024   .     S
Ni33   O37     2.031   .     S
Ni33   O38     2.105   1_545 S
Ni33   O107    2.022   .     S
Ni33   O99     2.095   .     S
Ni34   O36     2.000   .     S
Ni34   O43     2.013   .     S
Ni34   O35     2.049   .     S
Ni34   N44     2.057   .     S
Ni34   O38     2.113   .     S
Ni34   O39     2.123   .     S
O35    Ni65    2.095   .     S
O35    C82     1.387   .     S
O36    C50     1.194   .     D
O37    C88     1.295   .     D
O38    Ni33    2.105   1_565 S
O38    C56     1.247   .     S
O39    Ni258   2.033   .     S
O39    C89     1.277   .     S
O40    C57     1.255   .     D
O41    Ni258   2.018   .     S
O41    C63     1.296   .     S
O42    C63     1.328   .     D
O43    Ni33    2.007   1_565 S
O43    Ni65    2.022   .     S
O43    H128    0.985   .     S
N44    C51     1.485   .     S
N44    H45     0.901   .     S
N44    H46     0.899   .     S
N47    Ni258   2.031   .     S
N47    C58     1.537   .     S
N47    H48     0.898   .     S
N47    H49     0.902   .     S
C50    O99     1.387   1_565 S
C50    C115    1.477   .     S
C51    C53     1.552   .     S
C51    C82     1.477   .     S
C51    H52     0.980   .     S
C53    C56     1.510   .     S
C53    H54     0.969   .     S
C53    H55     0.974   .     S
C56    O101    1.295   .     D
C57    O103    1.277   .     S
C57    C122    1.485   .     S
C58    C89     1.485   .     S
C58    C252    1.508   .     S
C58    H59     0.986   .     S
C60    C63     1.395   .     S
C60    C250    1.508   .     S
C60    H61     0.965   .     S
C60    H62     0.985   .     S
H64    O75     0.985   .     S
Ni65   O75     2.007   .     S
Ni65   O72     2.024   .     S
Ni65   O69     2.031   1_565 S
Ni65   O70     2.105   .     S
Ni66   O68     2.000   .     S
Ni66   O75     2.013   .     S
Ni66   O67     2.049   .     S
Ni66   N76     2.057   .     S
Ni66   O70     2.113   .     S
Ni66   O71     2.123   .     S
O67    C18     1.387   1_565 S
O68    C82     1.194   .     D
O69    Ni65    2.031   1_545 S
O70    C88     1.247   1_565 S
O71    Ni259   2.033   .     S
O72    C89     1.255   .     D
O73    Ni259   2.018   .     S
O73    C95     1.296   .     S
O74    C95     1.328   .     D
N76    C83     1.485   1_565 S
N76    H77     0.901   .     S
N76    H78     0.899   .     S
N79    Ni259   2.031   .     S
N79    C90     1.537   .     S
N79    H80     0.898   .     S
N79    H81     0.902   .     S
C83    N76     1.485   1_545 S
C83    C85     1.552   .     S
C83    H84     0.980   .     S
C85    C88     1.510   .     S
C85    H86     0.969   .     S
C85    H87     0.974   .     S
C88    O70     1.247   1_545 S
C90    C156    1.508   1_554 S
C90    H91     0.986   1_554 S
H91    C90     0.986   1_556 S
C92    C95     1.395   .     S
C92    C154    1.508   .     S
C92    H93     0.965   .     S
C92    H94     0.985   .     S
Ni97   O107    2.007   .     S
Ni97   O104    2.024   .     S
Ni97   O101    2.031   1_545 S
Ni97   O102    2.105   .     S
Ni98   O100    2.000   .     S
Ni98   O107    2.013   .     S
Ni98   O99     2.049   .     S
Ni98   N108    2.057   .     S
Ni98   O102    2.113   .     S
Ni98   O103    2.123   .     S
O99    C50     1.387   1_545 S
O100   C114    1.194   .     D
O101   Ni97    2.031   1_565 S
O102   C120    1.247   1_545 S
O103   Ni260   2.033   .     S
O104   C121    1.255   .     D
O105   Ni260   2.018   .     S
O105   C127    1.296   .     S
O106   C127    1.328   1_554 D
N108   C115    1.485   1_545 S
N108   H109    0.901   .     S
N108   H110    0.899   .     S
N111   Ni260   2.031   .     S
N111   C122    1.537   .     S
N111   H112    0.898   .     S
N111   H113    0.902   .     S
C114   C19     1.477   1_556 S
C115   N108    1.485   1_565 S
C115   C117    1.552   .     S
C115   H116    0.980   .     S
C117   C120    1.510   .     S
C117   H118    0.969   .     S
C117   H119    0.974   1_556 S
H119   C117    0.974   1_554 S
C120   O102    1.247   1_565 S
C120   O5      1.295   1_556 D
C122   C188    1.508   .     S
C122   H123    0.986   .     S
C124   C127    1.395   1_554 S
C124   C186    1.508   1_554 S
C124   H125    0.965   .     S
C124   H126    0.985   .     S
C127   O106    1.328   1_556 D
C127   C124    1.395   1_556 S
Ni129  O139    2.007   .     S
Ni129  O136    2.024   .     S
Ni129  O133    2.031   1_455 S
Ni129  O134    2.105   .     S
Ni129  O203    2.022   .     S
Ni129  O195    2.095   .     S
Ni130  O132    2.000   .     S
Ni130  O139    2.013   .     S
Ni130  O131    2.049   .     S
Ni130  N140    2.057   .     S
Ni130  O134    2.113   .     S
Ni130  O135    2.123   .     S
O131   Ni225   2.095   .     S
O131   C242    1.387   1_455 S
O132   C146    1.194   .     D
O133   Ni129   2.031   1_655 S
O133   C248    1.295   .     D
O134   C152    1.247   1_455 S
O135   Ni259   2.033   .     S
O135   C249    1.277   .     S
O136   C153    1.255   .     D
O137   Ni259   2.018   .     S
O137   C159    1.296   .     S
O138   C159    1.328   1_556 D
O139   Ni225   2.022   .     S
O139   H224    0.985   .     S
N140   C147    1.485   1_455 S
N140   H141    0.901   .     S
N140   H142    0.899   .     S
N143   Ni259   2.031   .     S
N143   C154    1.537   .     S
N143   H144    0.898   .     S
N143   H145    0.902   .     S
C146   O195    1.387   .     S
C146   C211    1.477   1_554 S
C147   N140    1.485   1_655 S
C147   C149    1.552   .     S
C147   C242    1.477   .     S
C147   H148    0.980   .     S
C149   C152    1.510   .     S
C149   H150    0.969   .     S
C149   H151    0.974   1_554 S
H151   C149    0.974   1_556 S
C152   O134    1.247   1_655 S
C152   O197    1.295   1_554 D
C153   O199    1.277   .     S
C153   C218    1.485   .     S
C154   C249    1.485   .     S
C154   H155    0.986   .     S
C156   C159    1.395   1_556 S
C156   C90     1.508   1_556 S
C156   H157    0.965   .     S
C156   H158    0.985   .     S
C159   O138    1.328   1_554 D
C159   C156    1.395   1_554 S
H160   O235    0.985   .     S
Ni161  O171    2.007   .     S
Ni161  O168    2.024   .     S
Ni161  O165    2.031   1_655 S
Ni161  O166    2.105   .     S
Ni161  O235    2.022   .     S
Ni161  O227    2.095   .     S
Ni162  O164    2.000   .     S
Ni162  O171    2.013   .     S
Ni162  O163    2.049   .     S
Ni162  N172    2.057   .     S
Ni162  O166    2.113   .     S
Ni162  O167    2.123   .     S
O163   Ni193   2.095   .     S
O163   C210    1.387   1_655 S
O164   C178    1.194   .     D
O165   Ni161   2.031   1_455 S
O165   C216    1.295   .     D
O166   C184    1.247   1_655 S
O167   Ni260   2.033   .     S
O167   C217    1.277   .     S
O168   C185    1.255   .     D
O169   Ni260   2.018   .     S
O169   C191    1.296   .     S
O170   C191    1.328   .     D
O171   Ni193   2.022   .     S
O171   H256    0.985   .     S
N172   C179    1.485   1_655 S
N172   H173    0.901   .     S
N172   H174    0.899   .     S
N175   Ni260   2.031   .     S
N175   C186    1.537   .     S
N175   H176    0.898   .     S
N175   H177    0.902   .     S
C178   O227    1.387   .     S
C178   C243    1.477   .     S
C179   N172    1.485   1_455 S
C179   C181    1.552   .     S
C179   C210    1.477   .     S
C179   H180    0.980   .     S
C181   C184    1.510   .     S
C181   H182    0.969   .     S
C181   H183    0.974   .     S
C184   O166    1.247   1_455 S
C184   O229    1.295   .     D
C185   O231    1.277   .     S
C185   C250    1.485   .     S
C186   C217    1.485   .     S
C186   C124    1.508   1_556 S
C186   H187    0.986   1_556 S
H187   C186    0.986   1_554 S
C188   C191    1.395   .     S
C188   H189    0.965   .     S
C188   H190    0.985   .     S
H192   O203    0.985   .     S
Ni193  O203    2.007   1_656 S
Ni193  O200    2.024   .     S
Ni193  O197    2.031   .     S
Ni193  O198    2.105   1_655 S
Ni194  O196    2.000   .     S
Ni194  O203    2.013   1_556 S
Ni194  O195    2.049   1_556 S
Ni194  N204    2.057   .     S
Ni194  O198    2.113   .     S
Ni194  O199    2.123   1_556 S
O195   Ni194   2.049   1_554 S
O196   C210    1.194   .     D
O197   C152    1.295   1_556 D
O198   Ni193   2.105   1_455 S
O198   C216    1.247   .     S
O199   Ni194   2.123   1_554 S
O199   Ni257   2.033   .     S
O200   C217    1.255   .     D
O201   Ni257   2.018   1_556 S
O201   C223    1.296   .     S
O202   C223    1.328   .     D
O203   Ni193   2.007   1_454 S
O203   Ni194   2.013   1_554 S
N204   C211    1.485   .     S
N204   H205    0.901   .     S
N204   H206    0.899   .     S
N207   Ni257   2.031   .     S
N207   C218    1.537   .     S
N207   H208    0.898   .     S
N207   H209    0.902   .     S
C210   O163    1.387   1_455 S
C211   C213    1.552   .     S
C211   C146    1.477   1_556 S
C211   H212    0.980   .     S
C213   C216    1.510   .     S
C213   H214    0.969   .     S
C213   H215    0.974   .     S
C218   H219    0.986   .     S
C220   C223    1.395   .     S
C220   H221    0.965   .     S
C220   H222    0.985   .     S
Ni225  O235    2.007   1_455 S
Ni225  O232    2.024   .     S
Ni225  O229    2.031   .     S
Ni225  O230    2.105   1_455 S
Ni226  O228    2.000   .     S
Ni226  O235    2.013   .     S
Ni226  O227    2.049   .     S
Ni226  N236    2.057   .     S
Ni226  O230    2.113   .     S
Ni226  O231    2.123   .     S
O228   C242    1.194   .     D
O230   Ni225   2.105   1_655 S
O230   C248    1.247   .     S
O231   Ni258   2.033   .     S
O232   C249    1.255   .     D
O233   Ni258   2.018   .     S
O233   C255    1.296   .     S
O234   C255    1.328   .     D
O235   Ni225   2.007   1_655 S
N236   C243    1.485   .     S
N236   H237    0.901   .     S
N236   H238    0.899   .     S
N239   Ni258   2.031   .     S
N239   C250    1.537   .     S
N239   H240    0.898   .     S
N239   H241    0.902   .     S
C242   O131    1.387   1_655 S
C243   C245    1.552   .     S
C243   H244    0.980   .     S
C245   C248    1.510   .     S
C245   H246    0.969   .     S
C245   H247    0.974   .     S
C250   H251    0.986   .     S
C252   C255    1.395   .     S
C252   H253    0.965   .     S
C252   H254    0.985   .     S
Ni257  O201    2.018   1_554 S
Ni257  O7      2.033   1_554 S
Ni257  N15     2.031   1_554 S
