data_UTSA-280
_audit_creation_date              2025-06-13
_audit_creation_method            'Materials Studio'
_symmetry_space_group_name_H-M    'P1'
_symmetry_Int_Tables_number       1
_symmetry_cell_setting            triclinic
loop_
_symmetry_equiv_pos_as_xyz
  x,y,z
_cell_length_a                    9.2727
_cell_length_b                    12.8910
_cell_length_c                    5.4962
_cell_angle_alpha                 90.0000
_cell_angle_beta                  90.0150
_cell_angle_gamma                 90.0000
loop_
_atom_site_label
_atom_site_type_symbol
_atom_site_fract_x
_atom_site_fract_y
_atom_site_fract_z
_atom_site_U_iso_or_equiv
_atom_site_adp_type
_atom_site_occupancy
O1     O     0.38062   0.23698   0.35070   0.01143  Uani   1.00
O2     O     0.36846   0.11184   0.82860   0.00903  Uani   1.00
C3     C     0.30380   0.18767   0.92450   0.00797  Uani   1.00
C4     C     0.30950   0.24217   0.15890   0.00893  Uani   1.00
O5     O     0.88062   0.73698   0.35070   0.01143  Uani   1.00
O6     O     0.86846   0.61184   0.82860   0.00903  Uani   1.00
C7     C     0.80380   0.68767   0.92450   0.00797  Uani   1.00
C8     C     0.80950   0.74217   0.15890   0.00893  Uani   1.00
O9     O     0.61938   0.23698   0.64930   0.01143  Uani   1.00
O10    O     0.63154   0.11184   0.17140   0.00903  Uani   1.00
C11    C     0.69620   0.18767   0.07550   0.00797  Uani   1.00
C12    C     0.69050   0.24217   0.84110   0.00893  Uani   1.00
O13    O     0.11938   0.73698   0.64930   0.01143  Uani   1.00
O14    O     0.13154   0.61184   0.17140   0.00903  Uani   1.00
C15    C     0.19620   0.68767   0.07550   0.00797  Uani   1.00
C16    C     0.19050   0.74217   0.84110   0.00893  Uani   1.00
O17    O     0.61938   0.76302   0.64930   0.01143  Uani   1.00
O18    O     0.63154   0.88816   0.17140   0.00903  Uani   1.00
C19    C     0.69620   0.81233   0.07550   0.00797  Uani   1.00
C20    C     0.69050   0.75783   0.84110   0.00893  Uani   1.00
O21    O     0.11938   0.26302   0.64930   0.01143  Uani   1.00
O22    O     0.13154   0.38816   0.17140   0.00903  Uani   1.00
C23    C     0.19620   0.31233   0.07550   0.00797  Uani   1.00
C24    C     0.19050   0.25783   0.84110   0.00893  Uani   1.00
O25    O     0.38062   0.76302   0.35070   0.01143  Uani   1.00
O26    O     0.36846   0.88816   0.82860   0.00903  Uani   1.00
C27    C     0.30380   0.81233   0.92450   0.00797  Uani   1.00
C28    C     0.30950   0.75783   0.15890   0.00893  Uani   1.00
O29    O     0.88062   0.26302   0.35070   0.01143  Uani   1.00
O30    O     0.86846   0.38816   0.82860   0.00903  Uani   1.00
C31    C     0.80380   0.31233   0.92450   0.00797  Uani   1.00
C32    C     0.80950   0.25783   0.15890   0.00893  Uani   1.00
Co33   Co    0.50000   0.12017   0.50000   0.00640  Uani   1.00
Co34   Co   -0.00000   0.62017   0.50000   0.00640  Uani   1.00
Co35   Co    0.50000   0.87983   0.50000   0.00640  Uani   1.00
Co36   Co    0.00000   0.37983   0.50000   0.00640  Uani   1.00
Co37   Co    0.50000   0.00000   0.00000   0.00543  Uani   1.00
Co38   Co    0.00000   0.50000   0.00000   0.00543  Uani   1.00
O39    O     0.39670   0.00000   0.32570   0.00717  Uani   1.00
H40    H     0.30458   0.00000   0.32501   0.00900  Uiso   1.00
O41    O     0.89670   0.50000   0.32570   0.00717  Uani   1.00
H42    H     0.80458   0.50000   0.32501   0.00900  Uiso   1.00
O43    O     0.60330   0.00000   0.67430   0.00717  Uani   1.00
H44    H     0.69542   0.00000   0.67499   0.00900  Uiso   1.00
O45    O     0.10330   0.50000   0.67430   0.00717  Uani   1.00
H46    H     0.19542   0.50000   0.67499   0.00900  Uiso   1.00
loop_
_atom_site_aniso_label
_atom_site_aniso_U_11
_atom_site_aniso_U_22
_atom_site_aniso_U_33
_atom_site_aniso_U_12
_atom_site_aniso_U_13
_atom_site_aniso_U_23
O1        0.01570   0.00950   0.00910   0.00410  -0.00460  -0.00100
O2        0.01210   0.00700   0.00800   0.00350   0.00040   0.00030
C3        0.00910   0.00600   0.00880  -0.00030   0.00100   0.00220
C4        0.01140   0.00590   0.00950   0.00080   0.00120   0.00170
O5        0.01570   0.00950   0.00910   0.00410  -0.00460  -0.00100
O6        0.01210   0.00700   0.00800   0.00350   0.00040   0.00030
C7        0.00910   0.00600   0.00880  -0.00030   0.00100   0.00220
C8        0.01140   0.00590   0.00950   0.00080   0.00120   0.00170
O9        0.01570   0.00950   0.00910  -0.00410  -0.00460   0.00100
O10       0.01210   0.00700   0.00800  -0.00350   0.00040  -0.00030
C11       0.00910   0.00600   0.00880   0.00030   0.00100  -0.00220
C12       0.01140   0.00590   0.00950  -0.00080   0.00120  -0.00170
O13       0.01570   0.00950   0.00910  -0.00410  -0.00460   0.00100
O14       0.01210   0.00700   0.00800  -0.00350   0.00040  -0.00030
C15       0.00910   0.00600   0.00880   0.00030   0.00100  -0.00220
C16       0.01140   0.00590   0.00950  -0.00080   0.00120  -0.00170
O17       0.01570   0.00950   0.00910   0.00410  -0.00460  -0.00100
O18       0.01210   0.00700   0.00800   0.00350   0.00040   0.00030
C19       0.00910   0.00600   0.00880  -0.00030   0.00100   0.00220
C20       0.01140   0.00590   0.00950   0.00080   0.00120   0.00170
O21       0.01570   0.00950   0.00910   0.00410  -0.00460  -0.00100
O22       0.01210   0.00700   0.00800   0.00350   0.00040   0.00030
C23       0.00910   0.00600   0.00880  -0.00030   0.00100   0.00220
C24       0.01140   0.00590   0.00950   0.00080   0.00120   0.00170
O25       0.01570   0.00950   0.00910  -0.00410  -0.00460   0.00100
O26       0.01210   0.00700   0.00800  -0.00350   0.00040  -0.00030
C27       0.00910   0.00600   0.00880   0.00030   0.00100  -0.00220
C28       0.01140   0.00590   0.00950  -0.00080   0.00120  -0.00170
O29       0.01570   0.00950   0.00910  -0.00410  -0.00460   0.00100
O30       0.01210   0.00700   0.00800  -0.00350   0.00040  -0.00030
C31       0.00910   0.00600   0.00880   0.00030   0.00100  -0.00220
C32       0.01140   0.00590   0.00950  -0.00080   0.00120  -0.00170
Co33      0.01030   0.00360   0.00530   0.00000  -0.00142   0.00000
Co34      0.01030   0.00360   0.00530   0.00000  -0.00142   0.00000
Co35      0.01030   0.00360   0.00530   0.00000  -0.00142   0.00000
Co36      0.01030   0.00360   0.00530   0.00000  -0.00142   0.00000
Co37      0.00830   0.00310   0.00490   0.00000  -0.00040   0.00000
Co38      0.00830   0.00310   0.00490   0.00000  -0.00040   0.00000
O39       0.00740   0.00740   0.00670   0.00000  -0.00040   0.00000
O41       0.00740   0.00740   0.00670   0.00000  -0.00040   0.00000
O43       0.00740   0.00740   0.00670   0.00000  -0.00040   0.00000
O45       0.00740   0.00740   0.00670   0.00000  -0.00040   0.00000
loop_
_geom_bond_atom_site_label_1
_geom_bond_atom_site_label_2
_geom_bond_distance
_geom_bond_site_symmetry_2
_ccdc_geom_bond_type
O1     Co33    2.041   .     S
O1     C4      1.245   .     S
O2     Co37    2.110   1_556 S
O2     C3      1.262   .     S
O2     Co33    2.182   .     S
C3     C4      1.468   1_556 S
C3     C24     1.460   .     S
C4     C3      1.468   1_554 S
C4     C23     1.460   .     S
O5     Co34    2.041   1_655 S
O5     C8      1.245   .     S
O6     Co38    2.110   1_656 S
O6     C7      1.262   .     S
O6     Co34    2.182   1_655 S
C7     C8      1.468   1_556 S
C7     C20     1.460   .     S
C8     C7      1.468   1_554 S
C8     C19     1.460   .     S
O9     Co33    2.041   .     S
O9     C12     1.245   .     S
O10    Co37    2.110   .     S
O10    C11     1.262   .     S
O10    Co33    2.182   .     S
C11    C12     1.468   1_554 S
C11    C32     1.460   .     S
C12    C11     1.468   1_556 S
C12    C31     1.460   .     S
O13    Co34    2.041   .     S
O13    C16     1.245   .     S
O14    Co38    2.110   .     S
O14    C15     1.262   .     S
O14    Co34    2.182   .     S
C15    C16     1.468   1_554 S
C15    C28     1.460   .     S
C16    C15     1.468   1_556 S
C16    C27     1.460   .     S
O17    Co35    2.041   .     S
O17    C20     1.245   .     S
O18    Co37    2.110   1_565 S
O18    C19     1.262   .     S
O18    Co35    2.182   .     S
C19    C20     1.468   1_554 S
C20    C19     1.468   1_556 S
O21    Co36    2.041   .     S
O21    C24     1.245   .     S
O22    Co38    2.110   .     S
O22    C23     1.262   .     S
O22    Co36    2.182   .     S
C23    C24     1.468   1_554 S
C24    C23     1.468   1_556 S
O25    Co35    2.041   .     S
O25    C28     1.245   .     S
O26    Co37    2.110   1_566 S
O26    C27     1.262   .     S
O26    Co35    2.182   .     S
C27    C28     1.468   1_556 S
C28    C27     1.468   1_554 S
O29    Co36    2.041   1_655 S
O29    C32     1.245   .     S
O30    Co38    2.110   1_656 S
O30    C31     1.262   .     S
O30    Co36    2.182   1_655 S
C31    C32     1.468   1_556 S
C32    C31     1.468   1_554 S
Co33   O39     2.058   .     S
Co33   O43     2.058   .     S
Co34   O5      2.041   1_455 S
Co34   O41     2.058   1_455 S
Co34   O45     2.058   .     S
Co34   O6      2.182   1_455 S
Co35   O43     2.058   1_565 S
Co35   O39     2.058   1_565 S
Co36   O29     2.041   1_455 S
Co36   O45     2.058   .     S
Co36   O41     2.058   1_455 S
Co36   O30     2.182   1_455 S
Co37   O39     2.030   .     S
Co37   O43     2.030   1_554 S
Co37   O2      2.110   1_554 S
Co37   O18     2.110   1_545 S
Co37   O26     2.110   1_544 S
Co38   O41     2.030   1_455 S
Co38   O45     2.030   1_554 S
Co38   O6      2.110   1_454 S
Co38   O30     2.110   1_454 S
O39    Co35    2.058   1_545 S
O39    H40     0.854   .     S
O41    Co34    2.058   1_655 S
O41    Co36    2.058   1_655 S
O41    Co38    2.030   1_655 S
O41    H42     0.854   .     S
O43    Co35    2.058   1_545 S
O43    Co37    2.030   1_556 S
O43    H44     0.854   .     S
O45    Co38    2.030   1_556 S
O45    H46     0.854   .     S
