data_zif-8
_audit_creation_date              2025-06-13
_audit_creation_method            'Materials Studio'
_symmetry_space_group_name_H-M    'P1'
_symmetry_Int_Tables_number       1
_symmetry_cell_setting            triclinic
loop_
_symmetry_equiv_pos_as_xyz
  x,y,z
_cell_length_a                    16.8509
_cell_length_b                    16.8509
_cell_length_c                    16.8509
_cell_angle_alpha                 90.0000
_cell_angle_beta                  90.0000
_cell_angle_gamma                 90.0000
loop_
_atom_site_label
_atom_site_type_symbol
_atom_site_fract_x
_atom_site_fract_y
_atom_site_fract_z
_atom_site_U_iso_or_equiv
_atom_site_adp_type
_atom_site_occupancy
N1     N     0.58830   0.96430   0.31730   0.05300  Uani   1.00
C2     C     0.62760   0.89120   0.31600   0.06267  Uani   1.00
H3     H     0.61650   0.84940   0.28170   0.07600  Uiso   1.00
N4     N     0.08830   0.46430   0.81730   0.05300  Uani   1.00
C5     C     0.12760   0.39120   0.81600   0.06267  Uani   1.00
H6     H     0.11650   0.34940   0.78170   0.07600  Uiso   1.00
H7     H     0.05700   0.60470   0.86720   0.09300  Uiso   0.50
H8     H     0.14280   0.62180   0.89880   0.09300  Uiso   0.50
H9     H     0.07910   0.58390   0.95510   0.09300  Uiso   0.50
N10    N     0.41170   0.03570   0.31730   0.05300  Uani   1.00
C11    C     0.37240   0.10880   0.31600   0.06267  Uani   1.00
H12    H     0.38350   0.15060   0.28170   0.07600  Uiso   1.00
H13    H     0.44300   0.89530   0.36720   0.09300  Uiso   0.50
H14    H     0.35720   0.87820   0.39880   0.09300  Uiso   0.50
H15    H     0.42090   0.91610   0.45510   0.09300  Uiso   0.50
N16    N     0.91170   0.53570   0.81730   0.05300  Uani   1.00
C17    C     0.87240   0.60880   0.81600   0.06267  Uani   1.00
H18    H     0.88350   0.65060   0.78170   0.07600  Uiso   1.00
N19    N     0.41170   0.96430   0.68270   0.05300  Uani   1.00
C20    C     0.37240   0.89120   0.68400   0.06267  Uani   1.00
H21    H     0.38350   0.84940   0.71830   0.07600  Uiso   1.00
N22    N     0.91170   0.46430   0.18270   0.05300  Uani   1.00
C23    C     0.87240   0.39120   0.18400   0.06267  Uani   1.00
H24    H     0.88350   0.34940   0.21830   0.07600  Uiso   1.00
N25    N     0.58830   0.03570   0.68270   0.05300  Uani   1.00
C26    C     0.62760   0.10880   0.68400   0.06267  Uani   1.00
H27    H     0.61650   0.15060   0.71830   0.07600  Uiso   1.00
N28    N     0.08830   0.53570   0.18270   0.05300  Uani   1.00
C29    C     0.12760   0.60880   0.18400   0.06267  Uani   1.00
H30    H     0.11650   0.65060   0.21830   0.07600  Uiso   1.00
H31    H     0.05700   0.39530   0.13280   0.09300  Uiso   0.50
H32    H     0.14280   0.37820   0.10120   0.09300  Uiso   0.50
H33    H     0.07910   0.41610   0.04490   0.09300  Uiso   0.50
N34    N     0.31730   0.58830   0.96430   0.05300  Uani   1.00
C35    C     0.31600   0.62760   0.89120   0.06267  Uani   1.00
H36    H     0.28170   0.61650   0.84940   0.07600  Uiso   1.00
N37    N     0.81730   0.08830   0.46430   0.05300  Uani   1.00
C38    C     0.81600   0.12760   0.39120   0.06267  Uani   1.00
H39    H     0.78170   0.11650   0.34940   0.07600  Uiso   1.00
N40    N     0.31730   0.41170   0.03570   0.05300  Uani   1.00
C41    C     0.31600   0.37240   0.10880   0.06267  Uani   1.00
H42    H     0.28170   0.38350   0.15060   0.07600  Uiso   1.00
H43    H     0.36720   0.44300   0.89530   0.09300  Uiso   0.50
H44    H     0.39880   0.35720   0.87820   0.09300  Uiso   0.50
H45    H     0.45510   0.42090   0.91610   0.09300  Uiso   0.50
N46    N     0.81730   0.91170   0.53570   0.05300  Uani   1.00
C47    C     0.81600   0.87240   0.60880   0.06267  Uani   1.00
H48    H     0.78170   0.88350   0.65060   0.07600  Uiso   1.00
H49    H     0.86720   0.94300   0.39530   0.09300  Uiso   0.50
H50    H     0.89880   0.85720   0.37820   0.09300  Uiso   0.50
H51    H     0.95510   0.92090   0.41610   0.09300  Uiso   0.50
N52    N     0.68270   0.41170   0.96430   0.05300  Uani   1.00
C53    C     0.68400   0.37240   0.89120   0.06267  Uani   1.00
H54    H     0.71830   0.38350   0.84940   0.07600  Uiso   1.00
H55    H     0.63280   0.44300   0.10470   0.09300  Uiso   0.50
H56    H     0.60120   0.35720   0.12180   0.09300  Uiso   0.50
H57    H     0.54490   0.42090   0.08390   0.09300  Uiso   0.50
N58    N     0.18270   0.91170   0.46430   0.05300  Uani   1.00
C59    C     0.18400   0.87240   0.39120   0.06267  Uani   1.00
H60    H     0.21830   0.88350   0.34940   0.07600  Uiso   1.00
H61    H     0.13280   0.94300   0.60470   0.09300  Uiso   0.50
H62    H     0.10120   0.85720   0.62180   0.09300  Uiso   0.50
H63    H     0.04490   0.92090   0.58390   0.09300  Uiso   0.50
N64    N     0.68270   0.58830   0.03570   0.05300  Uani   1.00
C65    C     0.68400   0.62760   0.10880   0.06267  Uani   1.00
H66    H     0.71830   0.61650   0.15060   0.07600  Uiso   1.00
N67    N     0.18270   0.08830   0.53570   0.05300  Uani   1.00
C68    C     0.18400   0.12760   0.60880   0.06267  Uani   1.00
H69    H     0.21830   0.11650   0.65060   0.07600  Uiso   1.00
H70    H     0.13280   0.05700   0.39530   0.09300  Uiso   0.50
H71    H     0.10120   0.14280   0.37820   0.09300  Uiso   0.50
H72    H     0.04490   0.07910   0.41610   0.09300  Uiso   0.50
N73    N     0.96430   0.31730   0.58830   0.05300  Uani   1.00
C74    C     0.89120   0.31600   0.62760   0.06267  Uani   1.00
H75    H     0.84940   0.28170   0.61650   0.07600  Uiso   1.00
N76    N     0.46430   0.81730   0.08830   0.05300  Uani   1.00
C77    C     0.39120   0.81600   0.12760   0.06267  Uani   1.00
H78    H     0.34940   0.78170   0.11650   0.07600  Uiso   1.00
N79    N     0.03570   0.31730   0.41170   0.05300  Uani   1.00
C80    C     0.10880   0.31600   0.37240   0.06267  Uani   1.00
H81    H     0.15060   0.28170   0.38350   0.07600  Uiso   1.00
N82    N     0.53570   0.81730   0.91170   0.05300  Uani   1.00
C83    C     0.60880   0.81600   0.87240   0.06267  Uani   1.00
H84    H     0.65060   0.78170   0.88350   0.07600  Uiso   1.00
H85    H     0.39530   0.86720   0.94300   0.09300  Uiso   0.50
H86    H     0.37820   0.89880   0.85720   0.09300  Uiso   0.50
H87    H     0.41610   0.95510   0.92090   0.09300  Uiso   0.50
N88    N     0.96430   0.68270   0.41170   0.05300  Uani   1.00
C89    C     0.89120   0.68400   0.37240   0.06267  Uani   1.00
H90    H     0.84940   0.71830   0.38350   0.07600  Uiso   1.00
N91    N     0.46430   0.18270   0.91170   0.05300  Uani   1.00
C92    C     0.39120   0.18400   0.87240   0.06267  Uani   1.00
H93    H     0.34940   0.21830   0.88350   0.07600  Uiso   1.00
N94    N     0.03570   0.68270   0.58830   0.05300  Uani   1.00
C95    C     0.10880   0.68400   0.62760   0.06267  Uani   1.00
H96    H     0.15060   0.71830   0.61650   0.07600  Uiso   1.00
N97    N     0.53570   0.18270   0.08830   0.05300  Uani   1.00
C98    C     0.60880   0.18400   0.12760   0.06267  Uani   1.00
H99    H     0.65060   0.21830   0.11650   0.07600  Uiso   1.00
H100   H     0.39530   0.13280   0.05700   0.09300  Uiso   0.50
H101   H     0.37820   0.10120   0.14280   0.09300  Uiso   0.50
H102   H     0.41610   0.04490   0.07910   0.09300  Uiso   0.50
N103   N     0.96430   0.58830   0.31730   0.05300  Uani   1.00
C104   C     0.89120   0.62760   0.31600   0.06267  Uani   1.00
H105   H     0.84940   0.61650   0.28170   0.07600  Uiso   1.00
H106   H     0.10470   0.55700   0.36720   0.09300  Uiso   0.50
H107   H     0.12180   0.64280   0.39880   0.09300  Uiso   0.50
H108   H     0.08390   0.57910   0.45510   0.09300  Uiso   0.50
N109   N     0.46430   0.08830   0.81730   0.05300  Uani   1.00
C110   C     0.39120   0.12760   0.81600   0.06267  Uani   1.00
H111   H     0.34940   0.11650   0.78170   0.07600  Uiso   1.00
H112   H     0.60470   0.05700   0.86720   0.09300  Uiso   0.50
H113   H     0.62180   0.14280   0.89880   0.09300  Uiso   0.50
H114   H     0.58390   0.07910   0.95510   0.09300  Uiso   0.50
N115   N     0.03570   0.41170   0.31730   0.05300  Uani   1.00
C116   C     0.10880   0.37240   0.31600   0.06267  Uani   1.00
H117   H     0.15060   0.38350   0.28170   0.07600  Uiso   1.00
H118   H     0.89530   0.44300   0.36720   0.09300  Uiso   0.50
H119   H     0.87820   0.35720   0.39880   0.09300  Uiso   0.50
H120   H     0.91610   0.42090   0.45510   0.09300  Uiso   0.50
N121   N     0.53570   0.91170   0.81730   0.05300  Uani   1.00
C122   C     0.60880   0.87240   0.81600   0.06267  Uani   1.00
H123   H     0.65060   0.88350   0.78170   0.07600  Uiso   1.00
N124   N     0.96430   0.41170   0.68270   0.05300  Uani   1.00
C125   C     0.89120   0.37240   0.68400   0.06267  Uani   1.00
H126   H     0.84940   0.38350   0.71830   0.07600  Uiso   1.00
H127   H     0.10470   0.44300   0.63280   0.09300  Uiso   0.50
H128   H     0.12180   0.35720   0.60120   0.09300  Uiso   0.50
H129   H     0.08390   0.42090   0.54490   0.09300  Uiso   0.50
N130   N     0.46430   0.91170   0.18270   0.05300  Uani   1.00
C131   C     0.39120   0.87240   0.18400   0.06267  Uani   1.00
H132   H     0.34940   0.88350   0.21830   0.07600  Uiso   1.00
H133   H     0.60470   0.94300   0.13280   0.09300  Uiso   0.50
H134   H     0.62180   0.85720   0.10120   0.09300  Uiso   0.50
H135   H     0.58390   0.92090   0.04490   0.09300  Uiso   0.50
N136   N     0.03570   0.58830   0.68270   0.05300  Uani   1.00
C137   C     0.10880   0.62760   0.68400   0.06267  Uani   1.00
H138   H     0.15060   0.61650   0.71830   0.07600  Uiso   1.00
H139   H     0.89530   0.55700   0.63280   0.09300  Uiso   0.50
H140   H     0.87820   0.64280   0.60120   0.09300  Uiso   0.50
H141   H     0.91610   0.57910   0.54490   0.09300  Uiso   0.50
N142   N     0.53570   0.08830   0.18270   0.05300  Uani   1.00
C143   C     0.60880   0.12760   0.18400   0.06267  Uani   1.00
H144   H     0.65060   0.11650   0.21830   0.07600  Uiso   1.00
N145   N     0.58830   0.31730   0.96430   0.05300  Uani   1.00
C146   C     0.62760   0.31600   0.89120   0.06267  Uani   1.00
H147   H     0.61650   0.28170   0.84940   0.07600  Uiso   1.00
N148   N     0.08830   0.81730   0.46430   0.05300  Uani   1.00
C149   C     0.12760   0.81600   0.39120   0.06267  Uani   1.00
H150   H     0.11650   0.78170   0.34940   0.07600  Uiso   1.00
N151   N     0.41170   0.31730   0.03570   0.05300  Uani   1.00
C152   C     0.37240   0.31600   0.10880   0.06267  Uani   1.00
H153   H     0.38350   0.28170   0.15060   0.07600  Uiso   1.00
N154   N     0.91170   0.81730   0.53570   0.05300  Uani   1.00
C155   C     0.87240   0.81600   0.60880   0.06267  Uani   1.00
H156   H     0.88350   0.78170   0.65060   0.07600  Uiso   1.00
N157   N     0.41170   0.68270   0.96430   0.05300  Uani   1.00
C158   C     0.37240   0.68400   0.89120   0.06267  Uani   1.00
H159   H     0.38350   0.71830   0.84940   0.07600  Uiso   1.00
H160   H     0.44300   0.63280   0.10470   0.09300  Uiso   0.50
H161   H     0.35720   0.60120   0.12180   0.09300  Uiso   0.50
H162   H     0.42090   0.54490   0.08390   0.09300  Uiso   0.50
N163   N     0.91170   0.18270   0.46430   0.05300  Uani   1.00
C164   C     0.87240   0.18400   0.39120   0.06267  Uani   1.00
H165   H     0.88350   0.21830   0.34940   0.07600  Uiso   1.00
H166   H     0.94300   0.13280   0.60470   0.09300  Uiso   0.50
H167   H     0.85720   0.10120   0.62180   0.09300  Uiso   0.50
H168   H     0.92090   0.04490   0.58390   0.09300  Uiso   0.50
N169   N     0.58830   0.68270   0.03570   0.05300  Uani   1.00
C170   C     0.62760   0.68400   0.10880   0.06267  Uani   1.00
H171   H     0.61650   0.71830   0.15060   0.07600  Uiso   1.00
H172   H     0.55700   0.63280   0.89530   0.09300  Uiso   0.50
H173   H     0.64280   0.60120   0.87820   0.09300  Uiso   0.50
H174   H     0.57910   0.54490   0.91610   0.09300  Uiso   0.50
N175   N     0.08830   0.18270   0.53570   0.05300  Uani   1.00
C176   C     0.12760   0.18400   0.60880   0.06267  Uani   1.00
H177   H     0.11650   0.21830   0.65060   0.07600  Uiso   1.00
N178   N     0.31730   0.96430   0.58830   0.05300  Uani   1.00
C179   C     0.31600   0.89120   0.62760   0.06267  Uani   1.00
H180   H     0.28170   0.84940   0.61650   0.07600  Uiso   1.00
H181   H     0.36720   0.10470   0.55700   0.09300  Uiso   0.50
H182   H     0.39880   0.12180   0.64280   0.09300  Uiso   0.50
H183   H     0.45510   0.08390   0.57910   0.09300  Uiso   0.50
N184   N     0.81730   0.46430   0.08830   0.05300  Uani   1.00
C185   C     0.81600   0.39120   0.12760   0.06267  Uani   1.00
H186   H     0.78170   0.34940   0.11650   0.07600  Uiso   1.00
H187   H     0.86720   0.60470   0.05700   0.09300  Uiso   0.50
H188   H     0.89880   0.62180   0.14280   0.09300  Uiso   0.50
H189   H     0.95510   0.58390   0.07910   0.09300  Uiso   0.50
N190   N     0.31730   0.03570   0.41170   0.05300  Uani   1.00
C191   C     0.31600   0.10880   0.37240   0.06267  Uani   1.00
H192   H     0.28170   0.15060   0.38350   0.07600  Uiso   1.00
N193   N     0.81730   0.53570   0.91170   0.05300  Uani   1.00
C194   C     0.81600   0.60880   0.87240   0.06267  Uani   1.00
H195   H     0.78170   0.65060   0.88350   0.07600  Uiso   1.00
H196   H     0.86720   0.39530   0.94300   0.09300  Uiso   0.50
H197   H     0.89880   0.37820   0.85720   0.09300  Uiso   0.50
H198   H     0.95510   0.41610   0.92090   0.09300  Uiso   0.50
N199   N     0.68270   0.96430   0.41170   0.05300  Uani   1.00
C200   C     0.68400   0.89120   0.37240   0.06267  Uani   1.00
H201   H     0.71830   0.84940   0.38350   0.07600  Uiso   1.00
H202   H     0.63280   0.10470   0.44300   0.09300  Uiso   0.50
H203   H     0.60120   0.12180   0.35720   0.09300  Uiso   0.50
H204   H     0.54490   0.08390   0.42090   0.09300  Uiso   0.50
N205   N     0.18270   0.46430   0.91170   0.05300  Uani   1.00
C206   C     0.18400   0.39120   0.87240   0.06267  Uani   1.00
H207   H     0.21830   0.34940   0.88350   0.07600  Uiso   1.00
N208   N     0.68270   0.03570   0.58830   0.05300  Uani   1.00
C209   C     0.68400   0.10880   0.62760   0.06267  Uani   1.00
H210   H     0.71830   0.15060   0.61650   0.07600  Uiso   1.00
H211   H     0.63280   0.89530   0.55700   0.09300  Uiso   0.50
H212   H     0.60120   0.87820   0.64280   0.09300  Uiso   0.50
H213   H     0.54490   0.91610   0.57910   0.09300  Uiso   0.50
N214   N     0.18270   0.53570   0.08830   0.05300  Uani   1.00
C215   C     0.18400   0.60880   0.12760   0.06267  Uani   1.00
H216   H     0.21830   0.65060   0.11650   0.07600  Uiso   1.00
Zn217  Zn    0.50000   0.00000   0.25000   0.05033  Uani   1.00
Zn218  Zn    0.50000   0.00000   0.75000   0.05033  Uani   1.00
Zn219  Zn    0.00000   0.50000   0.25000   0.05033  Uani   1.00
Zn220  Zn    0.25000   0.50000   0.00000   0.05033  Uani   1.00
Zn221  Zn    0.75000   0.50000   0.00000   0.05033  Uani   1.00
Zn222  Zn    0.25000   0.00000   0.50000   0.05033  Uani   1.00
Zn223  Zn    0.00000   0.25000   0.50000   0.05033  Uani   1.00
Zn224  Zn    0.00000   0.75000   0.50000   0.05033  Uani   1.00
Zn225  Zn    0.50000   0.25000   0.00000   0.05033  Uani   1.00
Zn226  Zn    0.00000   0.50000   0.75000   0.05033  Uani   1.00
Zn227  Zn    0.50000   0.75000   0.00000   0.05033  Uani   1.00
Zn228  Zn    0.75000   0.00000   0.50000   0.05033  Uani   1.00
C229   C     0.62400   0.00530   0.37600   0.04900  Uani   1.00
C230   C     0.59850   0.08610   0.40150   0.06167  Uani   1.00
C231   C     0.12400   0.50530   0.87600   0.04900  Uani   1.00
C232   C     0.09850   0.58610   0.90150   0.06167  Uani   1.00
C233   C     0.37600   0.99470   0.37600   0.04900  Uani   1.00
C234   C     0.40150   0.91390   0.40150   0.06167  Uani   1.00
C235   C     0.87600   0.49470   0.87600   0.04900  Uani   1.00
C236   C     0.90150   0.41390   0.90150   0.06167  Uani   1.00
C237   C     0.37600   0.00530   0.62400   0.04900  Uani   1.00
C238   C     0.40150   0.08610   0.59850   0.06167  Uani   1.00
C239   C     0.87600   0.50530   0.12400   0.04900  Uani   1.00
C240   C     0.90150   0.58610   0.09850   0.06167  Uani   1.00
C241   C     0.62400   0.99470   0.62400   0.04900  Uani   1.00
C242   C     0.59850   0.91390   0.59850   0.06167  Uani   1.00
C243   C     0.12400   0.49470   0.12400   0.04900  Uani   1.00
C244   C     0.09850   0.41390   0.09850   0.06167  Uani   1.00
C245   C     0.37600   0.62400   0.00530   0.04900  Uani   1.00
C246   C     0.40150   0.59850   0.08610   0.06167  Uani   1.00
C247   C     0.87600   0.12400   0.50530   0.04900  Uani   1.00
C248   C     0.90150   0.09850   0.58610   0.06167  Uani   1.00
C249   C     0.37600   0.37600   0.99470   0.04900  Uani   1.00
C250   C     0.40150   0.40150   0.91390   0.06167  Uani   1.00
C251   C     0.87600   0.87600   0.49470   0.04900  Uani   1.00
C252   C     0.90150   0.90150   0.41390   0.06167  Uani   1.00
C253   C     0.62400   0.37600   0.00530   0.04900  Uani   1.00
C254   C     0.59850   0.40150   0.08610   0.06167  Uani   1.00
C255   C     0.12400   0.87600   0.50530   0.04900  Uani   1.00
C256   C     0.09850   0.90150   0.58610   0.06167  Uani   1.00
C257   C     0.62400   0.62400   0.99470   0.04900  Uani   1.00
C258   C     0.59850   0.59850   0.91390   0.06167  Uani   1.00
C259   C     0.12400   0.12400   0.49470   0.04900  Uani   1.00
C260   C     0.09850   0.09850   0.41390   0.06167  Uani   1.00
C261   C     0.00530   0.37600   0.62400   0.04900  Uani   1.00
C262   C     0.08610   0.40150   0.59850   0.06167  Uani   1.00
C263   C     0.50530   0.87600   0.12400   0.04900  Uani   1.00
C264   C     0.58610   0.90150   0.09850   0.06167  Uani   1.00
C265   C     0.99470   0.37600   0.37600   0.04900  Uani   1.00
C266   C     0.91390   0.40150   0.40150   0.06167  Uani   1.00
C267   C     0.49470   0.87600   0.87600   0.04900  Uani   1.00
C268   C     0.41390   0.90150   0.90150   0.06167  Uani   1.00
C269   C     0.00530   0.62400   0.37600   0.04900  Uani   1.00
C270   C     0.08610   0.59850   0.40150   0.06167  Uani   1.00
C271   C     0.50530   0.12400   0.87600   0.04900  Uani   1.00
C272   C     0.58610   0.09850   0.90150   0.06167  Uani   1.00
C273   C     0.99470   0.62400   0.62400   0.04900  Uani   1.00
C274   C     0.91390   0.59850   0.59850   0.06167  Uani   1.00
C275   C     0.49470   0.12400   0.12400   0.04900  Uani   1.00
C276   C     0.41390   0.09850   0.09850   0.06167  Uani   1.00
loop_
_atom_site_aniso_label
_atom_site_aniso_U_11
_atom_site_aniso_U_22
_atom_site_aniso_U_33
_atom_site_aniso_U_12
_atom_site_aniso_U_13
_atom_site_aniso_U_23
N1        0.05600   0.04900   0.05400   0.00100  -0.00700  -0.00200
C2        0.07100   0.04600   0.07100   0.00700  -0.01700  -0.00900
N4        0.05600   0.04900   0.05400   0.00100  -0.00700  -0.00200
C5        0.07100   0.04600   0.07100   0.00700  -0.01700  -0.00900
N10       0.05600   0.04900   0.05400   0.00100   0.00700   0.00200
C11       0.07100   0.04600   0.07100   0.00700   0.01700   0.00900
N16       0.05600   0.04900   0.05400   0.00100   0.00700   0.00200
C17       0.07100   0.04600   0.07100   0.00700   0.01700   0.00900
N19       0.05600   0.04900   0.05400  -0.00100  -0.00700   0.00200
C20       0.07100   0.04600   0.07100  -0.00700  -0.01700   0.00900
N22       0.05600   0.04900   0.05400  -0.00100  -0.00700   0.00200
C23       0.07100   0.04600   0.07100  -0.00700  -0.01700   0.00900
N25       0.05600   0.04900   0.05400  -0.00100   0.00700  -0.00200
C26       0.07100   0.04600   0.07100  -0.00700   0.01700  -0.00900
N28       0.05600   0.04900   0.05400  -0.00100   0.00700  -0.00200
C29       0.07100   0.04600   0.07100  -0.00700   0.01700  -0.00900
N34       0.05400   0.05600   0.04900  -0.00700  -0.00200   0.00100
C35       0.07100   0.07100   0.04600  -0.01700  -0.00900   0.00700
N37       0.05400   0.05600   0.04900  -0.00700  -0.00200   0.00100
C38       0.07100   0.07100   0.04600  -0.01700  -0.00900   0.00700
N40       0.05400   0.05600   0.04900   0.00700   0.00200   0.00100
C41       0.07100   0.07100   0.04600   0.01700   0.00900   0.00700
N46       0.05400   0.05600   0.04900   0.00700   0.00200   0.00100
C47       0.07100   0.07100   0.04600   0.01700   0.00900   0.00700
N52       0.05400   0.05600   0.04900  -0.00700   0.00200  -0.00100
C53       0.07100   0.07100   0.04600  -0.01700   0.00900  -0.00700
N58       0.05400   0.05600   0.04900  -0.00700   0.00200  -0.00100
C59       0.07100   0.07100   0.04600  -0.01700   0.00900  -0.00700
N64       0.05400   0.05600   0.04900   0.00700  -0.00200  -0.00100
C65       0.07100   0.07100   0.04600   0.01700  -0.00900  -0.00700
N67       0.05400   0.05600   0.04900   0.00700  -0.00200  -0.00100
C68       0.07100   0.07100   0.04600   0.01700  -0.00900  -0.00700
N73       0.04900   0.05400   0.05600  -0.00200   0.00100  -0.00700
C74       0.04600   0.07100   0.07100  -0.00900   0.00700  -0.01700
N76       0.04900   0.05400   0.05600  -0.00200   0.00100  -0.00700
C77       0.04600   0.07100   0.07100  -0.00900   0.00700  -0.01700
N79       0.04900   0.05400   0.05600   0.00200   0.00100   0.00700
C80       0.04600   0.07100   0.07100   0.00900   0.00700   0.01700
N82       0.04900   0.05400   0.05600   0.00200   0.00100   0.00700
C83       0.04600   0.07100   0.07100   0.00900   0.00700   0.01700
N88       0.04900   0.05400   0.05600   0.00200  -0.00100  -0.00700
C89       0.04600   0.07100   0.07100   0.00900  -0.00700  -0.01700
N91       0.04900   0.05400   0.05600   0.00200  -0.00100  -0.00700
C92       0.04600   0.07100   0.07100   0.00900  -0.00700  -0.01700
N94       0.04900   0.05400   0.05600  -0.00200  -0.00100   0.00700
C95       0.04600   0.07100   0.07100  -0.00900  -0.00700   0.01700
N97       0.04900   0.05400   0.05600  -0.00200  -0.00100   0.00700
C98       0.04600   0.07100   0.07100  -0.00900  -0.00700   0.01700
N103      0.04900   0.05600   0.05400   0.00100  -0.00200  -0.00700
C104      0.04600   0.07100   0.07100   0.00700  -0.00900  -0.01700
N109      0.04900   0.05600   0.05400   0.00100  -0.00200  -0.00700
C110      0.04600   0.07100   0.07100   0.00700  -0.00900  -0.01700
N115      0.04900   0.05600   0.05400   0.00100   0.00200   0.00700
C116      0.04600   0.07100   0.07100   0.00700   0.00900   0.01700
N121      0.04900   0.05600   0.05400   0.00100   0.00200   0.00700
C122      0.04600   0.07100   0.07100   0.00700   0.00900   0.01700
N124      0.04900   0.05600   0.05400  -0.00100   0.00200  -0.00700
C125      0.04600   0.07100   0.07100  -0.00700   0.00900  -0.01700
N130      0.04900   0.05600   0.05400  -0.00100   0.00200  -0.00700
C131      0.04600   0.07100   0.07100  -0.00700   0.00900  -0.01700
N136      0.04900   0.05600   0.05400  -0.00100  -0.00200   0.00700
C137      0.04600   0.07100   0.07100  -0.00700  -0.00900   0.01700
N142      0.04900   0.05600   0.05400  -0.00100  -0.00200   0.00700
C143      0.04600   0.07100   0.07100  -0.00700  -0.00900   0.01700
N145      0.05600   0.05400   0.04900  -0.00700   0.00100  -0.00200
C146      0.07100   0.07100   0.04600  -0.01700   0.00700  -0.00900
N148      0.05600   0.05400   0.04900  -0.00700   0.00100  -0.00200
C149      0.07100   0.07100   0.04600  -0.01700   0.00700  -0.00900
N151      0.05600   0.05400   0.04900   0.00700   0.00100   0.00200
C152      0.07100   0.07100   0.04600   0.01700   0.00700   0.00900
N154      0.05600   0.05400   0.04900   0.00700   0.00100   0.00200
C155      0.07100   0.07100   0.04600   0.01700   0.00700   0.00900
N157      0.05600   0.05400   0.04900  -0.00700  -0.00100   0.00200
C158      0.07100   0.07100   0.04600  -0.01700  -0.00700   0.00900
N163      0.05600   0.05400   0.04900  -0.00700  -0.00100   0.00200
C164      0.07100   0.07100   0.04600  -0.01700  -0.00700   0.00900
N169      0.05600   0.05400   0.04900   0.00700  -0.00100  -0.00200
C170      0.07100   0.07100   0.04600   0.01700  -0.00700  -0.00900
N175      0.05600   0.05400   0.04900   0.00700  -0.00100  -0.00200
C176      0.07100   0.07100   0.04600   0.01700  -0.00700  -0.00900
N178      0.05400   0.04900   0.05600  -0.00200  -0.00700   0.00100
C179      0.07100   0.04600   0.07100  -0.00900  -0.01700   0.00700
N184      0.05400   0.04900   0.05600  -0.00200  -0.00700   0.00100
C185      0.07100   0.04600   0.07100  -0.00900  -0.01700   0.00700
N190      0.05400   0.04900   0.05600   0.00200   0.00700   0.00100
C191      0.07100   0.04600   0.07100   0.00900   0.01700   0.00700
N193      0.05400   0.04900   0.05600   0.00200   0.00700   0.00100
C194      0.07100   0.04600   0.07100   0.00900   0.01700   0.00700
N199      0.05400   0.04900   0.05600   0.00200  -0.00700  -0.00100
C200      0.07100   0.04600   0.07100   0.00900  -0.01700  -0.00700
N205      0.05400   0.04900   0.05600   0.00200  -0.00700  -0.00100
C206      0.07100   0.04600   0.07100   0.00900  -0.01700  -0.00700
N208      0.05400   0.04900   0.05600  -0.00200   0.00700  -0.00100
C209      0.07100   0.04600   0.07100  -0.00900   0.01700  -0.00700
N214      0.05400   0.04900   0.05600  -0.00200   0.00700  -0.00100
C215      0.07100   0.04600   0.07100  -0.00900   0.01700  -0.00700
Zn217     0.05070   0.05070   0.04960   0.00000   0.00000   0.00000
Zn218     0.05070   0.05070   0.04960   0.00000   0.00000   0.00000
Zn219     0.05070   0.05070   0.04960   0.00000   0.00000   0.00000
Zn220     0.04960   0.05070   0.05070   0.00000   0.00000   0.00000
Zn221     0.04960   0.05070   0.05070   0.00000   0.00000   0.00000
Zn222     0.04960   0.05070   0.05070   0.00000   0.00000   0.00000
Zn223     0.05070   0.04960   0.05070   0.00000   0.00000   0.00000
Zn224     0.05070   0.04960   0.05070   0.00000   0.00000   0.00000
Zn225     0.05070   0.04960   0.05070   0.00000   0.00000   0.00000
Zn226     0.05070   0.05070   0.04960   0.00000   0.00000   0.00000
Zn227     0.05070   0.04960   0.05070   0.00000   0.00000   0.00000
Zn228     0.04960   0.05070   0.05070   0.00000   0.00000   0.00000
C229      0.05300   0.04100   0.05300   0.00100   0.00500  -0.00100
C230      0.06400   0.05700   0.06400   0.00500  -0.01000  -0.00500
C231      0.05300   0.04100   0.05300   0.00100   0.00500  -0.00100
C232      0.06400   0.05700   0.06400   0.00500  -0.01000  -0.00500
C233      0.05300   0.04100   0.05300   0.00100  -0.00500   0.00100
C234      0.06400   0.05700   0.06400   0.00500   0.01000   0.00500
C235      0.05300   0.04100   0.05300   0.00100  -0.00500   0.00100
C236      0.06400   0.05700   0.06400   0.00500   0.01000   0.00500
C237      0.05300   0.04100   0.05300  -0.00100   0.00500   0.00100
C238      0.06400   0.05700   0.06400  -0.00500  -0.01000   0.00500
C239      0.05300   0.04100   0.05300  -0.00100   0.00500   0.00100
C240      0.06400   0.05700   0.06400  -0.00500  -0.01000   0.00500
C241      0.05300   0.04100   0.05300  -0.00100  -0.00500  -0.00100
C242      0.06400   0.05700   0.06400  -0.00500   0.01000  -0.00500
C243      0.05300   0.04100   0.05300  -0.00100  -0.00500  -0.00100
C244      0.06400   0.05700   0.06400  -0.00500   0.01000  -0.00500
C245      0.05300   0.05300   0.04100   0.00500  -0.00100   0.00100
C246      0.06400   0.06400   0.05700  -0.01000  -0.00500   0.00500
C247      0.05300   0.05300   0.04100   0.00500  -0.00100   0.00100
C248      0.06400   0.06400   0.05700  -0.01000  -0.00500   0.00500
C249      0.05300   0.05300   0.04100  -0.00500   0.00100   0.00100
C250      0.06400   0.06400   0.05700   0.01000   0.00500   0.00500
C251      0.05300   0.05300   0.04100  -0.00500   0.00100   0.00100
C252      0.06400   0.06400   0.05700   0.01000   0.00500   0.00500
C253      0.05300   0.05300   0.04100   0.00500   0.00100  -0.00100
C254      0.06400   0.06400   0.05700  -0.01000   0.00500  -0.00500
C255      0.05300   0.05300   0.04100   0.00500   0.00100  -0.00100
C256      0.06400   0.06400   0.05700  -0.01000   0.00500  -0.00500
C257      0.05300   0.05300   0.04100  -0.00500  -0.00100  -0.00100
C258      0.06400   0.06400   0.05700   0.01000  -0.00500  -0.00500
C259      0.05300   0.05300   0.04100  -0.00500  -0.00100  -0.00100
C260      0.06400   0.06400   0.05700   0.01000  -0.00500  -0.00500
C261      0.04100   0.05300   0.05300  -0.00100   0.00100   0.00500
C262      0.05700   0.06400   0.06400  -0.00500   0.00500  -0.01000
C263      0.04100   0.05300   0.05300  -0.00100   0.00100   0.00500
C264      0.05700   0.06400   0.06400  -0.00500   0.00500  -0.01000
C265      0.04100   0.05300   0.05300   0.00100   0.00100  -0.00500
C266      0.05700   0.06400   0.06400   0.00500   0.00500   0.01000
C267      0.04100   0.05300   0.05300   0.00100   0.00100  -0.00500
C268      0.05700   0.06400   0.06400   0.00500   0.00500   0.01000
C269      0.04100   0.05300   0.05300   0.00100  -0.00100   0.00500
C270      0.05700   0.06400   0.06400   0.00500  -0.00500  -0.01000
C271      0.04100   0.05300   0.05300   0.00100  -0.00100   0.00500
C272      0.05700   0.06400   0.06400   0.00500  -0.00500  -0.01000
C273      0.04100   0.05300   0.05300  -0.00100  -0.00100  -0.00500
C274      0.05700   0.06400   0.06400  -0.00500  -0.00500   0.01000
C275      0.04100   0.05300   0.05300  -0.00100  -0.00100  -0.00500
C276      0.05700   0.06400   0.06400  -0.00500  -0.00500   0.01000
loop_
_geom_bond_atom_site_label_1
_geom_bond_atom_site_label_2
_geom_bond_distance
_geom_bond_site_symmetry_2
_ccdc_geom_bond_type
N1     Zn217   1.965   1_565 S
N1     C229    1.348   1_565 S
N1     C2      1.399   .     S
C2     C200    1.344   .     S
N4     Zn226   1.965   .     S
N4     C231    1.348   .     S
N4     C5      1.399   .     S
C5     C206    1.344   .     S
N10    Zn217   1.965   .     S
N10    C233    1.348   1_545 S
N10    C11     1.399   .     S
C11    C191    1.344   .     S
N16    Zn226   1.965   1_655 S
N16    C235    1.348   .     S
N16    C17     1.399   .     S
C17    C194    1.344   .     S
N19    Zn218   1.965   1_565 S
N19    C237    1.348   1_565 S
N19    C20     1.399   .     S
C20    C179    1.344   .     S
N22    Zn219   1.965   1_655 S
N22    C239    1.348   .     S
N22    C23     1.399   .     S
C23    C185    1.344   .     S
N25    Zn218   1.965   .     S
N25    C241    1.348   1_545 S
N25    C26     1.399   .     S
C26    C209    1.344   .     S
N28    Zn219   1.965   .     S
N28    C243    1.348   .     S
N28    C29     1.399   .     S
C29    C215    1.344   .     S
N34    Zn220   1.965   1_556 S
N34    C245    1.348   1_556 S
N34    C35     1.399   .     S
C35    C158    1.344   .     S
N37    Zn228   1.965   .     S
N37    C247    1.348   .     S
N37    C38     1.399   .     S
C38    C164    1.344   .     S
N40    Zn220   1.965   .     S
N40    C249    1.348   1_554 S
N40    C41     1.399   .     S
C41    C152    1.344   .     S
N46    Zn228   1.965   1_565 S
N46    C251    1.348   .     S
N46    C47     1.399   .     S
C47    C155    1.344   .     S
N52    Zn221   1.965   1_556 S
N52    C253    1.348   1_556 S
N52    C53     1.399   .     S
C53    C146    1.344   .     S
N58    Zn222   1.965   1_565 S
N58    C255    1.348   .     S
N58    C59     1.399   .     S
C59    C149    1.344   .     S
N64    Zn221   1.965   .     S
N64    C257    1.348   1_554 S
N64    C65     1.399   .     S
C65    C170    1.344   .     S
N67    Zn222   1.965   .     S
N67    C259    1.348   .     S
N67    C68     1.399   .     S
C68    C176    1.344   .     S
N73    Zn223   1.965   1_655 S
N73    C261    1.348   1_655 S
N73    C74     1.399   .     S
C74    C125    1.344   .     S
N76    Zn227   1.965   .     S
N76    C263    1.348   .     S
N76    C77     1.399   .     S
C77    C131    1.344   .     S
N79    Zn223   1.965   .     S
N79    C265    1.348   1_455 S
N79    C80     1.399   .     S
C80    C116    1.344   .     S
N82    Zn227   1.965   1_556 S
N82    C267    1.348   .     S
N82    C83     1.399   .     S
C83    C122    1.344   .     S
N88    Zn224   1.965   1_655 S
N88    C269    1.348   1_655 S
N88    C89     1.399   .     S
C89    C104    1.344   .     S
N91    Zn225   1.965   1_556 S
N91    C271    1.348   .     S
N91    C92     1.399   .     S
C92    C110    1.344   .     S
N94    Zn224   1.965   .     S
N94    C273    1.348   1_455 S
N94    C95     1.399   .     S
C95    C137    1.344   .     S
N97    Zn225   1.965   .     S
N97    C275    1.348   .     S
N97    C98     1.399   .     S
C98    C143    1.344   .     S
N103   Zn219   1.965   1_655 S
N103   C269    1.348   1_655 S
N103   C104    1.399   .     S
N109   Zn218   1.965   .     S
N109   C271    1.348   .     S
N109   C110    1.399   .     S
N115   Zn219   1.965   .     S
N115   C265    1.348   1_455 S
N115   C116    1.399   .     S
N121   Zn218   1.965   1_565 S
N121   C267    1.348   .     S
N121   C122    1.399   .     S
N124   Zn226   1.965   1_655 S
N124   C261    1.348   1_655 S
N124   C125    1.399   .     S
N130   Zn217   1.965   1_565 S
N130   C263    1.348   .     S
N130   C131    1.399   .     S
N136   Zn226   1.965   .     S
N136   C273    1.348   1_455 S
N136   C137    1.399   .     S
N142   Zn217   1.965   .     S
N142   C275    1.348   .     S
N142   C143    1.399   .     S
N145   Zn225   1.965   1_556 S
N145   C253    1.348   1_556 S
N145   C146    1.399   .     S
N148   Zn224   1.965   .     S
N148   C255    1.348   .     S
N148   C149    1.399   .     S
N151   Zn225   1.965   .     S
N151   C249    1.348   1_554 S
N151   C152    1.399   .     S
N154   Zn224   1.965   1_655 S
N154   C251    1.348   .     S
N154   C155    1.399   .     S
N157   Zn227   1.965   1_556 S
N157   C245    1.348   1_556 S
N157   C158    1.399   .     S
N163   Zn223   1.965   1_655 S
N163   C247    1.348   .     S
N163   C164    1.399   .     S
N169   Zn227   1.965   .     S
N169   C257    1.348   1_554 S
N169   C170    1.399   .     S
N175   Zn223   1.965   .     S
N175   C259    1.348   .     S
N175   C176    1.399   .     S
N178   Zn222   1.965   1_565 S
N178   C237    1.348   1_565 S
N178   C179    1.399   .     S
N184   Zn221   1.965   .     S
N184   C239    1.348   .     S
N184   C185    1.399   .     S
N190   Zn222   1.965   .     S
N190   C233    1.348   1_545 S
N190   C191    1.399   .     S
N193   Zn221   1.965   1_556 S
N193   C235    1.348   .     S
N193   C194    1.399   .     S
N199   Zn228   1.965   1_565 S
N199   C229    1.348   1_565 S
N199   C200    1.399   .     S
N205   Zn220   1.965   1_556 S
N205   C231    1.348   .     S
N205   C206    1.399   .     S
N208   Zn228   1.965   .     S
N208   C241    1.348   1_545 S
N208   C209    1.399   .     S
N214   Zn220   1.965   .     S
N214   C243    1.348   .     S
N214   C215    1.399   .     S
Zn217  N1      1.965   1_545 S
Zn217  N130    1.965   1_545 S
Zn218  N19     1.965   1_545 S
Zn218  N121    1.965   1_545 S
Zn219  N103    1.965   1_455 S
Zn219  N22     1.965   1_455 S
Zn220  N34     1.965   1_554 S
Zn220  N205    1.965   1_554 S
Zn221  N52     1.965   1_554 S
Zn221  N193    1.965   1_554 S
Zn222  N178    1.965   1_545 S
Zn222  N58     1.965   1_545 S
Zn223  N73     1.965   1_455 S
Zn223  N163    1.965   1_455 S
Zn224  N88     1.965   1_455 S
Zn224  N154    1.965   1_455 S
Zn225  N145    1.965   1_554 S
Zn225  N91     1.965   1_554 S
Zn226  N124    1.965   1_455 S
Zn226  N16     1.965   1_455 S
Zn227  N157    1.965   1_554 S
Zn227  N82     1.965   1_554 S
Zn228  N199    1.965   1_545 S
Zn228  N46     1.965   1_545 S
C229   N1      1.348   1_545 S
C229   N199    1.348   1_545 S
C229   C230    1.491   .     S
C231   C232    1.491   .     S
C233   N10     1.348   1_565 S
C233   N190    1.348   1_565 S
C233   C234    1.491   .     S
C235   C236    1.491   .     S
C237   N19     1.348   1_545 S
C237   N178    1.348   1_545 S
C237   C238    1.491   .     S
C239   C240    1.491   .     S
C241   N25     1.348   1_565 S
C241   N208    1.348   1_565 S
C241   C242    1.491   .     S
C243   C244    1.491   .     S
C245   N34     1.348   1_554 S
C245   N157    1.348   1_554 S
C245   C246    1.491   .     S
C247   C248    1.491   .     S
C249   N40     1.348   1_556 S
C249   N151    1.348   1_556 S
C249   C250    1.491   .     S
C251   C252    1.491   .     S
C253   N52     1.348   1_554 S
C253   N145    1.348   1_554 S
C253   C254    1.491   .     S
C255   C256    1.491   .     S
C257   N64     1.348   1_556 S
C257   N169    1.348   1_556 S
C257   C258    1.491   .     S
C259   C260    1.491   .     S
C261   N73     1.348   1_455 S
C261   N124    1.348   1_455 S
C261   C262    1.491   .     S
C263   C264    1.491   .     S
C265   N79     1.348   1_655 S
C265   N115    1.348   1_655 S
C265   C266    1.491   .     S
C267   C268    1.491   .     S
C269   N88     1.348   1_455 S
C269   N103    1.348   1_455 S
C269   C270    1.491   .     S
C271   C272    1.491   .     S
C273   N94     1.348   1_655 S
C273   N136    1.348   1_655 S
C273   C274    1.491   .     S
C275   C276    1.491   .     S
