data_zju-74
_audit_creation_date              2025-06-13
_audit_creation_method            'Materials Studio'
_symmetry_space_group_name_H-M    'P1'
_symmetry_Int_Tables_number       1
_symmetry_cell_setting            triclinic
loop_
_symmetry_equiv_pos_as_xyz
  x,y,z
_cell_length_a                    7.2201
_cell_length_b                    7.2201
_cell_length_c                    7.1079
_cell_angle_alpha                 90.0000
_cell_angle_beta                  90.0000
_cell_angle_gamma                 90.0000
loop_
_atom_site_label
_atom_site_type_symbol
_atom_site_fract_x
_atom_site_fract_y
_atom_site_fract_z
_atom_site_U_iso_or_equiv
_atom_site_adp_type
_atom_site_occupancy
Ni1    Ni    0.00000   0.00000   0.50000   0.01123  Uani   1.00
Co2    Co    0.50000   0.50000   0.50000   0.00923  Uani   1.00
N3     N     0.50000   0.50000   0.19510   0.01527  Uani   1.00
N4     N     0.50000   0.50000   0.80490   0.01527  Uani   1.00
N5     N     0.70460   0.70460   0.50000   0.01460  Uani   1.00
C6     C     0.81800   0.81800   0.50000   0.01420  Uani   1.00
N7     N     0.29540   0.29540   0.50000   0.01460  Uani   1.00
C8     C     0.18200   0.18200   0.50000   0.01420  Uani   1.00
N9     N     0.29540   0.70460   0.50000   0.01460  Uani   1.00
C10    C     0.18200   0.81800   0.50000   0.01420  Uani   1.00
N11    N     0.70460   0.29540   0.50000   0.01460  Uani   1.00
C12    C     0.81800   0.18200   0.50000   0.01420  Uani   1.00
C13    C     0.65650   0.50000   0.10010   0.02433  Uani   0.50
H14    H     0.77267   0.50000   0.16585   0.02900  Uiso   0.50
C15    C     0.34350   0.50000   0.10010   0.02433  Uani   0.50
H16    H     0.22733   0.50000   0.16585   0.02900  Uiso   0.50
C17    C     0.34350   0.50000   0.89990   0.02433  Uani   0.50
H18    H     0.22733   0.50000   0.83415   0.02900  Uiso   0.50
C19    C     0.65650   0.50000   0.89990   0.02433  Uani   0.50
H20    H     0.77267   0.50000   0.83415   0.02900  Uiso   0.50
loop_
_atom_site_aniso_label
_atom_site_aniso_U_11
_atom_site_aniso_U_22
_atom_site_aniso_U_33
_atom_site_aniso_U_12
_atom_site_aniso_U_13
_atom_site_aniso_U_23
Ni1       0.00550   0.00550   0.02270   0.00000   0.00000   0.00000
Co2       0.00630   0.00630   0.01510   0.00000   0.00000   0.00000
N3        0.01340   0.01340   0.01900   0.00000   0.00000   0.00000
N4        0.01340   0.01340   0.01900   0.00000   0.00000   0.00000
N5        0.01090   0.01090   0.02200  -0.00100   0.00000   0.00000
C6        0.01030   0.01030   0.02200   0.00210   0.00000   0.00000
N7        0.01090   0.01090   0.02200  -0.00100   0.00000   0.00000
C8        0.01030   0.01030   0.02200   0.00210   0.00000   0.00000
N9        0.01090   0.01090   0.02200   0.00100   0.00000   0.00000
C10       0.01030   0.01030   0.02200  -0.00210   0.00000   0.00000
N11       0.01090   0.01090   0.02200   0.00100   0.00000   0.00000
C12       0.01030   0.01030   0.02200  -0.00210   0.00000   0.00000
C13       0.01100   0.05100   0.01100   0.00000   0.00000   0.00000
C15       0.01100   0.05100   0.01100   0.00000   0.00000   0.00000
C17       0.01100   0.05100   0.01100   0.00000   0.00000   0.00000
C19       0.01100   0.05100   0.01100   0.00000   0.00000   0.00000
loop_
_geom_bond_atom_site_label_1
_geom_bond_atom_site_label_2
_geom_bond_distance
_geom_bond_site_symmetry_2
_ccdc_geom_bond_type
Ni1    C6      1.858   1_445 S
Ni1    C8      1.858   .     S
Ni1    C10     1.858   1_545 S
Ni1    C12     1.858   1_455 S
Co2    N5      2.089   .     S
Co2    N7      2.089   .     S
Co2    N9      2.089   .     S
Co2    N11     2.089   .     S
Co2    N3      2.167   .     S
Co2    N4      2.167   .     S
N3     C13     1.316   .     S
N3     C15     1.316   .     S
N4     C17     1.316   .     S
N4     C19     1.316   .     S
N5     C6      1.158   .     S
C6     Ni1     1.858   1_665 S
N7     C8      1.158   .     S
N9     C10     1.158   .     S
C10    Ni1     1.858   1_565 S
N11    C12     1.158   .     S
C12    Ni1     1.858   1_655 S
C13    H14     0.960   .     S
C13    C19     1.423   1_554 S
C15    H16     0.960   .     S
C15    C17     1.423   1_554 S
C17    H18     0.960   .     S
C17    C15     1.423   1_556 S
C19    H20     0.960   .     S
C19    C13     1.423   1_556 S
